sim-outorder -config sa1core.cfg simf -t direct -i createfile -c ret  -l stack -f memcpy > /tmp/ripe_log 2>&1 		FAIL	10 / 10
sim-outorder -config sa1core.cfg simf -t direct -i createfile -c ret  -l stack -f strcpy > /tmp/ripe_log 2>&1 		FAIL	10 / 10
sim-outorder -config sa1core.cfg simf -t direct -i createfile -c ret  -l stack -f strncpy > /tmp/ripe_log 2>&1 		FAIL	10 / 10
sim-outorder -config sa1core.cfg simf -t direct -i createfile -c ret  -l stack -f sprintf > /tmp/ripe_log 2>&1 		FAIL	10 / 10
sim-outorder -config sa1core.cfg simf -t direct -i createfile -c ret  -l stack -f snprintf > /tmp/ripe_log 2>&1 		FAIL	10 / 10
sim-outorder -config sa1core.cfg simf -t direct -i createfile -c ret  -l stack -f strcat > /tmp/ripe_log 2>&1 		FAIL	10 / 10
sim-outorder -config sa1core.cfg simf -t direct -i createfile -c ret  -l stack -f strncat > /tmp/ripe_log 2>&1 		FAIL	10 / 10
sim-outorder -config sa1core.cfg simf -t direct -i createfile -c ret  -l stack -f sscanf > /tmp/ripe_log 2>&1 		FAIL	10 / 10
sim-outorder -config sa1core.cfg simf -t direct -i createfile -c ret  -l stack -f fscanf > /tmp/ripe_log 2>&1 		FAIL	10 / 10
sim-outorder -config sa1core.cfg simf -t direct -i createfile -c ret  -l stack -f homebrew > /tmp/ripe_log 2>&1 		FAIL	10 / 10
sim-outorder -config sa1core.cfg simf -t direct -i createfile -c baseptr  -l stack -f memcpy > /tmp/ripe_log 2>&1 		FAIL	10 / 10
sim-outorder -config sa1core.cfg simf -t direct -i createfile -c baseptr  -l stack -f strcpy > /tmp/ripe_log 2>&1 		FAIL	10 / 10
sim-outorder -config sa1core.cfg simf -t direct -i createfile -c baseptr  -l stack -f strncpy > /tmp/ripe_log 2>&1 		FAIL	10 / 10
sim-outorder -config sa1core.cfg simf -t direct -i createfile -c baseptr  -l stack -f sprintf > /tmp/ripe_log 2>&1 		FAIL	10 / 10
sim-outorder -config sa1core.cfg simf -t direct -i createfile -c baseptr  -l stack -f snprintf > /tmp/ripe_log 2>&1 		FAIL	10 / 10
sim-outorder -config sa1core.cfg simf -t direct -i createfile -c baseptr  -l stack -f strcat > /tmp/ripe_log 2>&1 		FAIL	10 / 10
sim-outorder -config sa1core.cfg simf -t direct -i createfile -c baseptr  -l stack -f strncat > /tmp/ripe_log 2>&1 		FAIL	10 / 10
sim-outorder -config sa1core.cfg simf -t direct -i createfile -c baseptr  -l stack -f sscanf > /tmp/ripe_log 2>&1 		FAIL	10 / 10
sim-outorder -config sa1core.cfg simf -t direct -i createfile -c baseptr  -l stack -f fscanf > /tmp/ripe_log 2>&1 		FAIL	10 / 10
sim-outorder -config sa1core.cfg simf -t direct -i createfile -c baseptr  -l stack -f homebrew > /tmp/ripe_log 2>&1 		FAIL	10 / 10
sim-outorder -config sa1core.cfg simf -t direct -i createfile -c funcptrstackvar  -l stack -f memcpy > /tmp/ripe_log 2>&1 		FAIL	10 / 10
sim-outorder -config sa1core.cfg simf -t direct -i createfile -c funcptrstackvar  -l stack -f strcpy > /tmp/ripe_log 2>&1 		FAIL	10 / 10
sim-outorder -config sa1core.cfg simf -t direct -i createfile -c funcptrstackvar  -l stack -f strncpy > /tmp/ripe_log 2>&1 		FAIL	10 / 10
sim-outorder -config sa1core.cfg simf -t direct -i createfile -c funcptrstackvar  -l stack -f sprintf > /tmp/ripe_log 2>&1 		FAIL	10 / 10
sim-outorder -config sa1core.cfg simf -t direct -i createfile -c funcptrstackvar  -l stack -f snprintf > /tmp/ripe_log 2>&1 		FAIL	10 / 10
sim-outorder -config sa1core.cfg simf -t direct -i createfile -c funcptrstackvar  -l stack -f strcat > /tmp/ripe_log 2>&1 		FAIL	10 / 10
sim-outorder -config sa1core.cfg simf -t direct -i createfile -c funcptrstackvar  -l stack -f strncat > /tmp/ripe_log 2>&1 		FAIL	10 / 10
sim-outorder -config sa1core.cfg simf -t direct -i createfile -c funcptrstackvar  -l stack -f sscanf > /tmp/ripe_log 2>&1 		FAIL	10 / 10
sim-outorder -config sa1core.cfg simf -t direct -i createfile -c funcptrstackvar  -l stack -f fscanf > /tmp/ripe_log 2>&1 		FAIL	10 / 10
sim-outorder -config sa1core.cfg simf -t direct -i createfile -c funcptrstackvar  -l stack -f homebrew > /tmp/ripe_log 2>&1 		FAIL	10 / 10
sim-outorder -config sa1core.cfg simf -t direct -i createfile -c funcptrstackparam  -l stack -f memcpy > /tmp/ripe_log 2>&1 		FAIL	10 / 10
sim-outorder -config sa1core.cfg simf -t direct -i createfile -c funcptrstackparam  -l stack -f strcpy > /tmp/ripe_log 2>&1 		FAIL	10 / 10
sim-outorder -config sa1core.cfg simf -t direct -i createfile -c funcptrstackparam  -l stack -f strncpy > /tmp/ripe_log 2>&1 		FAIL	10 / 10
sim-outorder -config sa1core.cfg simf -t direct -i createfile -c funcptrstackparam  -l stack -f sprintf > /tmp/ripe_log 2>&1 		FAIL	10 / 10
sim-outorder -config sa1core.cfg simf -t direct -i createfile -c funcptrstackparam  -l stack -f snprintf > /tmp/ripe_log 2>&1 		FAIL	10 / 10
sim-outorder -config sa1core.cfg simf -t direct -i createfile -c funcptrstackparam  -l stack -f strcat > /tmp/ripe_log 2>&1 		FAIL	10 / 10
sim-outorder -config sa1core.cfg simf -t direct -i createfile -c funcptrstackparam  -l stack -f strncat > /tmp/ripe_log 2>&1 		FAIL	10 / 10
sim-outorder -config sa1core.cfg simf -t direct -i createfile -c funcptrstackparam  -l stack -f sscanf > /tmp/ripe_log 2>&1 		FAIL	10 / 10
sim-outorder -config sa1core.cfg simf -t direct -i createfile -c funcptrstackparam  -l stack -f fscanf > /tmp/ripe_log 2>&1 		FAIL	10 / 10
sim-outorder -config sa1core.cfg simf -t direct -i createfile -c funcptrstackparam  -l stack -f homebrew > /tmp/ripe_log 2>&1 		FAIL	10 / 10
sim-outorder -config sa1core.cfg simf -t direct -i createfile -c funcptrheap  -l stack -f memcpy > /tmp/ripe_log 2>&1 		NOT POSSIBLE
sim-outorder -config sa1core.cfg simf -t direct -i createfile -c funcptrheap  -l stack -f strcpy > /tmp/ripe_log 2>&1 		NOT POSSIBLE
sim-outorder -config sa1core.cfg simf -t direct -i createfile -c funcptrheap  -l stack -f strncpy > /tmp/ripe_log 2>&1 		NOT POSSIBLE
sim-outorder -config sa1core.cfg simf -t direct -i createfile -c funcptrheap  -l stack -f sprintf > /tmp/ripe_log 2>&1 		NOT POSSIBLE
sim-outorder -config sa1core.cfg simf -t direct -i createfile -c funcptrheap  -l stack -f snprintf > /tmp/ripe_log 2>&1 		NOT POSSIBLE
sim-outorder -config sa1core.cfg simf -t direct -i createfile -c funcptrheap  -l stack -f strcat > /tmp/ripe_log 2>&1 		NOT POSSIBLE
sim-outorder -config sa1core.cfg simf -t direct -i createfile -c funcptrheap  -l stack -f strncat > /tmp/ripe_log 2>&1 		NOT POSSIBLE
sim-outorder -config sa1core.cfg simf -t direct -i createfile -c funcptrheap  -l stack -f sscanf > /tmp/ripe_log 2>&1 		NOT POSSIBLE
sim-outorder -config sa1core.cfg simf -t direct -i createfile -c funcptrheap  -l stack -f fscanf > /tmp/ripe_log 2>&1 		NOT POSSIBLE
sim-outorder -config sa1core.cfg simf -t direct -i createfile -c funcptrheap  -l stack -f homebrew > /tmp/ripe_log 2>&1 		NOT POSSIBLE
sim-outorder -config sa1core.cfg simf -t direct -i createfile -c funcptrbss  -l stack -f memcpy > /tmp/ripe_log 2>&1 		NOT POSSIBLE
sim-outorder -config sa1core.cfg simf -t direct -i createfile -c funcptrbss  -l stack -f strcpy > /tmp/ripe_log 2>&1 		NOT POSSIBLE
sim-outorder -config sa1core.cfg simf -t direct -i createfile -c funcptrbss  -l stack -f strncpy > /tmp/ripe_log 2>&1 		NOT POSSIBLE
sim-outorder -config sa1core.cfg simf -t direct -i createfile -c funcptrbss  -l stack -f sprintf > /tmp/ripe_log 2>&1 		NOT POSSIBLE
sim-outorder -config sa1core.cfg simf -t direct -i createfile -c funcptrbss  -l stack -f snprintf > /tmp/ripe_log 2>&1 		NOT POSSIBLE
sim-outorder -config sa1core.cfg simf -t direct -i createfile -c funcptrbss  -l stack -f strcat > /tmp/ripe_log 2>&1 		NOT POSSIBLE
sim-outorder -config sa1core.cfg simf -t direct -i createfile -c funcptrbss  -l stack -f strncat > /tmp/ripe_log 2>&1 		NOT POSSIBLE
sim-outorder -config sa1core.cfg simf -t direct -i createfile -c funcptrbss  -l stack -f sscanf > /tmp/ripe_log 2>&1 		NOT POSSIBLE
sim-outorder -config sa1core.cfg simf -t direct -i createfile -c funcptrbss  -l stack -f fscanf > /tmp/ripe_log 2>&1 		NOT POSSIBLE
sim-outorder -config sa1core.cfg simf -t direct -i createfile -c funcptrbss  -l stack -f homebrew > /tmp/ripe_log 2>&1 		NOT POSSIBLE
sim-outorder -config sa1core.cfg simf -t direct -i createfile -c funcptrdata  -l stack -f memcpy > /tmp/ripe_log 2>&1 		NOT POSSIBLE
sim-outorder -config sa1core.cfg simf -t direct -i createfile -c funcptrdata  -l stack -f strcpy > /tmp/ripe_log 2>&1 		NOT POSSIBLE
sim-outorder -config sa1core.cfg simf -t direct -i createfile -c funcptrdata  -l stack -f strncpy > /tmp/ripe_log 2>&1 		NOT POSSIBLE
sim-outorder -config sa1core.cfg simf -t direct -i createfile -c funcptrdata  -l stack -f sprintf > /tmp/ripe_log 2>&1 		NOT POSSIBLE
sim-outorder -config sa1core.cfg simf -t direct -i createfile -c funcptrdata  -l stack -f snprintf > /tmp/ripe_log 2>&1 		NOT POSSIBLE
sim-outorder -config sa1core.cfg simf -t direct -i createfile -c funcptrdata  -l stack -f strcat > /tmp/ripe_log 2>&1 		NOT POSSIBLE
sim-outorder -config sa1core.cfg simf -t direct -i createfile -c funcptrdata  -l stack -f strncat > /tmp/ripe_log 2>&1 		NOT POSSIBLE
sim-outorder -config sa1core.cfg simf -t direct -i createfile -c funcptrdata  -l stack -f sscanf > /tmp/ripe_log 2>&1 		NOT POSSIBLE
sim-outorder -config sa1core.cfg simf -t direct -i createfile -c funcptrdata  -l stack -f fscanf > /tmp/ripe_log 2>&1 		NOT POSSIBLE
sim-outorder -config sa1core.cfg simf -t direct -i createfile -c funcptrdata  -l stack -f homebrew > /tmp/ripe_log 2>&1 		NOT POSSIBLE
sim-outorder -config sa1core.cfg simf -t direct -i createfile -c longjmpstackvar  -l stack -f memcpy > /tmp/ripe_log 2>&1 		FAIL	10 / 10
sim-outorder -config sa1core.cfg simf -t direct -i createfile -c longjmpstackvar  -l stack -f strcpy > /tmp/ripe_log 2>&1 		FAIL	10 / 10
sim-outorder -config sa1core.cfg simf -t direct -i createfile -c longjmpstackvar  -l stack -f strncpy > /tmp/ripe_log 2>&1 		FAIL	10 / 10
sim-outorder -config sa1core.cfg simf -t direct -i createfile -c longjmpstackvar  -l stack -f sprintf > /tmp/ripe_log 2>&1 		FAIL	10 / 10
sim-outorder -config sa1core.cfg simf -t direct -i createfile -c longjmpstackvar  -l stack -f snprintf > /tmp/ripe_log 2>&1 		FAIL	10 / 10
sim-outorder -config sa1core.cfg simf -t direct -i createfile -c longjmpstackvar  -l stack -f strcat > /tmp/ripe_log 2>&1 		FAIL	10 / 10
sim-outorder -config sa1core.cfg simf -t direct -i createfile -c longjmpstackvar  -l stack -f strncat > /tmp/ripe_log 2>&1 		FAIL	10 / 10
sim-outorder -config sa1core.cfg simf -t direct -i createfile -c longjmpstackvar  -l stack -f sscanf > /tmp/ripe_log 2>&1 		FAIL	10 / 10
sim-outorder -config sa1core.cfg simf -t direct -i createfile -c longjmpstackvar  -l stack -f fscanf > /tmp/ripe_log 2>&1 		FAIL	10 / 10
sim-outorder -config sa1core.cfg simf -t direct -i createfile -c longjmpstackvar  -l stack -f homebrew > /tmp/ripe_log 2>&1 		FAIL	10 / 10
sim-outorder -config sa1core.cfg simf -t direct -i createfile -c longjmpstackparam  -l stack -f memcpy > /tmp/ripe_log 2>&1 		FAIL	10 / 10
sim-outorder -config sa1core.cfg simf -t direct -i createfile -c longjmpstackparam  -l stack -f strcpy > /tmp/ripe_log 2>&1 		FAIL	10 / 10
sim-outorder -config sa1core.cfg simf -t direct -i createfile -c longjmpstackparam  -l stack -f strncpy > /tmp/ripe_log 2>&1 		FAIL	10 / 10
sim-outorder -config sa1core.cfg simf -t direct -i createfile -c longjmpstackparam  -l stack -f sprintf > /tmp/ripe_log 2>&1 		FAIL	10 / 10
sim-outorder -config sa1core.cfg simf -t direct -i createfile -c longjmpstackparam  -l stack -f snprintf > /tmp/ripe_log 2>&1 		FAIL	10 / 10
sim-outorder -config sa1core.cfg simf -t direct -i createfile -c longjmpstackparam  -l stack -f strcat > /tmp/ripe_log 2>&1 		FAIL	10 / 10
sim-outorder -config sa1core.cfg simf -t direct -i createfile -c longjmpstackparam  -l stack -f strncat > /tmp/ripe_log 2>&1 		FAIL	10 / 10
sim-outorder -config sa1core.cfg simf -t direct -i createfile -c longjmpstackparam  -l stack -f sscanf > /tmp/ripe_log 2>&1 		FAIL	10 / 10
sim-outorder -config sa1core.cfg simf -t direct -i createfile -c longjmpstackparam  -l stack -f fscanf > /tmp/ripe_log 2>&1 		FAIL	10 / 10
sim-outorder -config sa1core.cfg simf -t direct -i createfile -c longjmpstackparam  -l stack -f homebrew > /tmp/ripe_log 2>&1 		FAIL	10 / 10
sim-outorder -config sa1core.cfg simf -t direct -i createfile -c longjmpheap  -l stack -f memcpy > /tmp/ripe_log 2>&1 		NOT POSSIBLE
sim-outorder -config sa1core.cfg simf -t direct -i createfile -c longjmpheap  -l stack -f strcpy > /tmp/ripe_log 2>&1 		NOT POSSIBLE
sim-outorder -config sa1core.cfg simf -t direct -i createfile -c longjmpheap  -l stack -f strncpy > /tmp/ripe_log 2>&1 		NOT POSSIBLE
sim-outorder -config sa1core.cfg simf -t direct -i createfile -c longjmpheap  -l stack -f sprintf > /tmp/ripe_log 2>&1 		NOT POSSIBLE
sim-outorder -config sa1core.cfg simf -t direct -i createfile -c longjmpheap  -l stack -f snprintf > /tmp/ripe_log 2>&1 		NOT POSSIBLE
sim-outorder -config sa1core.cfg simf -t direct -i createfile -c longjmpheap  -l stack -f strcat > /tmp/ripe_log 2>&1 		NOT POSSIBLE
sim-outorder -config sa1core.cfg simf -t direct -i createfile -c longjmpheap  -l stack -f strncat > /tmp/ripe_log 2>&1 		NOT POSSIBLE
sim-outorder -config sa1core.cfg simf -t direct -i createfile -c longjmpheap  -l stack -f sscanf > /tmp/ripe_log 2>&1 		NOT POSSIBLE
sim-outorder -config sa1core.cfg simf -t direct -i createfile -c longjmpheap  -l stack -f fscanf > /tmp/ripe_log 2>&1 		NOT POSSIBLE
sim-outorder -config sa1core.cfg simf -t direct -i createfile -c longjmpheap  -l stack -f homebrew > /tmp/ripe_log 2>&1 		NOT POSSIBLE
sim-outorder -config sa1core.cfg simf -t direct -i createfile -c longjmpbss  -l stack -f memcpy > /tmp/ripe_log 2>&1 		NOT POSSIBLE
sim-outorder -config sa1core.cfg simf -t direct -i createfile -c longjmpbss  -l stack -f strcpy > /tmp/ripe_log 2>&1 		NOT POSSIBLE
sim-outorder -config sa1core.cfg simf -t direct -i createfile -c longjmpbss  -l stack -f strncpy > /tmp/ripe_log 2>&1 		NOT POSSIBLE
sim-outorder -config sa1core.cfg simf -t direct -i createfile -c longjmpbss  -l stack -f sprintf > /tmp/ripe_log 2>&1 		NOT POSSIBLE
sim-outorder -config sa1core.cfg simf -t direct -i createfile -c longjmpbss  -l stack -f snprintf > /tmp/ripe_log 2>&1 		NOT POSSIBLE
sim-outorder -config sa1core.cfg simf -t direct -i createfile -c longjmpbss  -l stack -f strcat > /tmp/ripe_log 2>&1 		NOT POSSIBLE
sim-outorder -config sa1core.cfg simf -t direct -i createfile -c longjmpbss  -l stack -f strncat > /tmp/ripe_log 2>&1 		NOT POSSIBLE
sim-outorder -config sa1core.cfg simf -t direct -i createfile -c longjmpbss  -l stack -f sscanf > /tmp/ripe_log 2>&1 		NOT POSSIBLE
sim-outorder -config sa1core.cfg simf -t direct -i createfile -c longjmpbss  -l stack -f fscanf > /tmp/ripe_log 2>&1 		NOT POSSIBLE
sim-outorder -config sa1core.cfg simf -t direct -i createfile -c longjmpbss  -l stack -f homebrew > /tmp/ripe_log 2>&1 		NOT POSSIBLE
sim-outorder -config sa1core.cfg simf -t direct -i createfile -c longjmpdata  -l stack -f memcpy > /tmp/ripe_log 2>&1 		NOT POSSIBLE
sim-outorder -config sa1core.cfg simf -t direct -i createfile -c longjmpdata  -l stack -f strcpy > /tmp/ripe_log 2>&1 		NOT POSSIBLE
sim-outorder -config sa1core.cfg simf -t direct -i createfile -c longjmpdata  -l stack -f strncpy > /tmp/ripe_log 2>&1 		NOT POSSIBLE
sim-outorder -config sa1core.cfg simf -t direct -i createfile -c longjmpdata  -l stack -f sprintf > /tmp/ripe_log 2>&1 		NOT POSSIBLE
sim-outorder -config sa1core.cfg simf -t direct -i createfile -c longjmpdata  -l stack -f snprintf > /tmp/ripe_log 2>&1 		NOT POSSIBLE
sim-outorder -config sa1core.cfg simf -t direct -i createfile -c longjmpdata  -l stack -f strcat > /tmp/ripe_log 2>&1 		NOT POSSIBLE
sim-outorder -config sa1core.cfg simf -t direct -i createfile -c longjmpdata  -l stack -f strncat > /tmp/ripe_log 2>&1 		NOT POSSIBLE
sim-outorder -config sa1core.cfg simf -t direct -i createfile -c longjmpdata  -l stack -f sscanf > /tmp/ripe_log 2>&1 		NOT POSSIBLE
sim-outorder -config sa1core.cfg simf -t direct -i createfile -c longjmpdata  -l stack -f fscanf > /tmp/ripe_log 2>&1 		NOT POSSIBLE
sim-outorder -config sa1core.cfg simf -t direct -i createfile -c longjmpdata  -l stack -f homebrew > /tmp/ripe_log 2>&1 		NOT POSSIBLE
sim-outorder -config sa1core.cfg simf -t direct -i createfile -c structfuncptrstack  -l stack -f memcpy > /tmp/ripe_log 2>&1 		FAIL	10 / 10
sim-outorder -config sa1core.cfg simf -t direct -i createfile -c structfuncptrstack  -l stack -f strcpy > /tmp/ripe_log 2>&1 		FAIL	10 / 10
sim-outorder -config sa1core.cfg simf -t direct -i createfile -c structfuncptrstack  -l stack -f strncpy > /tmp/ripe_log 2>&1 		FAIL	10 / 10
sim-outorder -config sa1core.cfg simf -t direct -i createfile -c structfuncptrstack  -l stack -f sprintf > /tmp/ripe_log 2>&1 		FAIL	10 / 10
sim-outorder -config sa1core.cfg simf -t direct -i createfile -c structfuncptrstack  -l stack -f snprintf > /tmp/ripe_log 2>&1 		FAIL	10 / 10
sim-outorder -config sa1core.cfg simf -t direct -i createfile -c structfuncptrstack  -l stack -f strcat > /tmp/ripe_log 2>&1 		FAIL	10 / 10
sim-outorder -config sa1core.cfg simf -t direct -i createfile -c structfuncptrstack  -l stack -f strncat > /tmp/ripe_log 2>&1 		FAIL	10 / 10
sim-outorder -config sa1core.cfg simf -t direct -i createfile -c structfuncptrstack  -l stack -f sscanf > /tmp/ripe_log 2>&1 		FAIL	10 / 10
sim-outorder -config sa1core.cfg simf -t direct -i createfile -c structfuncptrstack  -l stack -f fscanf > /tmp/ripe_log 2>&1 		FAIL	10 / 10
sim-outorder -config sa1core.cfg simf -t direct -i createfile -c structfuncptrstack  -l stack -f homebrew > /tmp/ripe_log 2>&1 		FAIL	10 / 10
sim-outorder -config sa1core.cfg simf -t direct -i createfile -c structfuncptrheap  -l stack -f memcpy > /tmp/ripe_log 2>&1 		NOT POSSIBLE
sim-outorder -config sa1core.cfg simf -t direct -i createfile -c structfuncptrheap  -l stack -f strcpy > /tmp/ripe_log 2>&1 		NOT POSSIBLE
sim-outorder -config sa1core.cfg simf -t direct -i createfile -c structfuncptrheap  -l stack -f strncpy > /tmp/ripe_log 2>&1 		NOT POSSIBLE
sim-outorder -config sa1core.cfg simf -t direct -i createfile -c structfuncptrheap  -l stack -f sprintf > /tmp/ripe_log 2>&1 		NOT POSSIBLE
sim-outorder -config sa1core.cfg simf -t direct -i createfile -c structfuncptrheap  -l stack -f snprintf > /tmp/ripe_log 2>&1 		NOT POSSIBLE
sim-outorder -config sa1core.cfg simf -t direct -i createfile -c structfuncptrheap  -l stack -f strcat > /tmp/ripe_log 2>&1 		NOT POSSIBLE
sim-outorder -config sa1core.cfg simf -t direct -i createfile -c structfuncptrheap  -l stack -f strncat > /tmp/ripe_log 2>&1 		NOT POSSIBLE
sim-outorder -config sa1core.cfg simf -t direct -i createfile -c structfuncptrheap  -l stack -f sscanf > /tmp/ripe_log 2>&1 		NOT POSSIBLE
sim-outorder -config sa1core.cfg simf -t direct -i createfile -c structfuncptrheap  -l stack -f fscanf > /tmp/ripe_log 2>&1 		NOT POSSIBLE
sim-outorder -config sa1core.cfg simf -t direct -i createfile -c structfuncptrheap  -l stack -f homebrew > /tmp/ripe_log 2>&1 		NOT POSSIBLE
sim-outorder -config sa1core.cfg simf -t direct -i createfile -c structfuncptrdata  -l stack -f memcpy > /tmp/ripe_log 2>&1 		NOT POSSIBLE
sim-outorder -config sa1core.cfg simf -t direct -i createfile -c structfuncptrdata  -l stack -f strcpy > /tmp/ripe_log 2>&1 		NOT POSSIBLE
sim-outorder -config sa1core.cfg simf -t direct -i createfile -c structfuncptrdata  -l stack -f strncpy > /tmp/ripe_log 2>&1 		NOT POSSIBLE
sim-outorder -config sa1core.cfg simf -t direct -i createfile -c structfuncptrdata  -l stack -f sprintf > /tmp/ripe_log 2>&1 		NOT POSSIBLE
sim-outorder -config sa1core.cfg simf -t direct -i createfile -c structfuncptrdata  -l stack -f snprintf > /tmp/ripe_log 2>&1 		NOT POSSIBLE
sim-outorder -config sa1core.cfg simf -t direct -i createfile -c structfuncptrdata  -l stack -f strcat > /tmp/ripe_log 2>&1 		NOT POSSIBLE
sim-outorder -config sa1core.cfg simf -t direct -i createfile -c structfuncptrdata  -l stack -f strncat > /tmp/ripe_log 2>&1 		NOT POSSIBLE
sim-outorder -config sa1core.cfg simf -t direct -i createfile -c structfuncptrdata  -l stack -f sscanf > /tmp/ripe_log 2>&1 		NOT POSSIBLE
sim-outorder -config sa1core.cfg simf -t direct -i createfile -c structfuncptrdata  -l stack -f fscanf > /tmp/ripe_log 2>&1 		NOT POSSIBLE
sim-outorder -config sa1core.cfg simf -t direct -i createfile -c structfuncptrdata  -l stack -f homebrew > /tmp/ripe_log 2>&1 		NOT POSSIBLE
sim-outorder -config sa1core.cfg simf -t direct -i createfile -c structfuncptrbss  -l stack -f memcpy > /tmp/ripe_log 2>&1 		NOT POSSIBLE
sim-outorder -config sa1core.cfg simf -t direct -i createfile -c structfuncptrbss  -l stack -f strcpy > /tmp/ripe_log 2>&1 		NOT POSSIBLE
sim-outorder -config sa1core.cfg simf -t direct -i createfile -c structfuncptrbss  -l stack -f strncpy > /tmp/ripe_log 2>&1 		NOT POSSIBLE
sim-outorder -config sa1core.cfg simf -t direct -i createfile -c structfuncptrbss  -l stack -f sprintf > /tmp/ripe_log 2>&1 		NOT POSSIBLE
sim-outorder -config sa1core.cfg simf -t direct -i createfile -c structfuncptrbss  -l stack -f snprintf > /tmp/ripe_log 2>&1 		NOT POSSIBLE
sim-outorder -config sa1core.cfg simf -t direct -i createfile -c structfuncptrbss  -l stack -f strcat > /tmp/ripe_log 2>&1 		NOT POSSIBLE
sim-outorder -config sa1core.cfg simf -t direct -i createfile -c structfuncptrbss  -l stack -f strncat > /tmp/ripe_log 2>&1 		NOT POSSIBLE
sim-outorder -config sa1core.cfg simf -t direct -i createfile -c structfuncptrbss  -l stack -f sscanf > /tmp/ripe_log 2>&1 		NOT POSSIBLE
sim-outorder -config sa1core.cfg simf -t direct -i createfile -c structfuncptrbss  -l stack -f fscanf > /tmp/ripe_log 2>&1 		NOT POSSIBLE
sim-outorder -config sa1core.cfg simf -t direct -i createfile -c structfuncptrbss  -l stack -f homebrew > /tmp/ripe_log 2>&1 		NOT POSSIBLE
sim-outorder -config sa1core.cfg simf -t direct -i createfile -c ret  -l heap -f memcpy > /tmp/ripe_log 2>&1 		NOT POSSIBLE
sim-outorder -config sa1core.cfg simf -t direct -i createfile -c ret  -l heap -f strcpy > /tmp/ripe_log 2>&1 		NOT POSSIBLE
sim-outorder -config sa1core.cfg simf -t direct -i createfile -c ret  -l heap -f strncpy > /tmp/ripe_log 2>&1 		NOT POSSIBLE
sim-outorder -config sa1core.cfg simf -t direct -i createfile -c ret  -l heap -f sprintf > /tmp/ripe_log 2>&1 		NOT POSSIBLE
sim-outorder -config sa1core.cfg simf -t direct -i createfile -c ret  -l heap -f snprintf > /tmp/ripe_log 2>&1 		NOT POSSIBLE
sim-outorder -config sa1core.cfg simf -t direct -i createfile -c ret  -l heap -f strcat > /tmp/ripe_log 2>&1 		NOT POSSIBLE
sim-outorder -config sa1core.cfg simf -t direct -i createfile -c ret  -l heap -f strncat > /tmp/ripe_log 2>&1 		NOT POSSIBLE
sim-outorder -config sa1core.cfg simf -t direct -i createfile -c ret  -l heap -f sscanf > /tmp/ripe_log 2>&1 		NOT POSSIBLE
sim-outorder -config sa1core.cfg simf -t direct -i createfile -c ret  -l heap -f fscanf > /tmp/ripe_log 2>&1 		NOT POSSIBLE
sim-outorder -config sa1core.cfg simf -t direct -i createfile -c ret  -l heap -f homebrew > /tmp/ripe_log 2>&1 		NOT POSSIBLE
sim-outorder -config sa1core.cfg simf -t direct -i createfile -c baseptr  -l heap -f memcpy > /tmp/ripe_log 2>&1 		NOT POSSIBLE
sim-outorder -config sa1core.cfg simf -t direct -i createfile -c baseptr  -l heap -f strcpy > /tmp/ripe_log 2>&1 		NOT POSSIBLE
sim-outorder -config sa1core.cfg simf -t direct -i createfile -c baseptr  -l heap -f strncpy > /tmp/ripe_log 2>&1 		NOT POSSIBLE
sim-outorder -config sa1core.cfg simf -t direct -i createfile -c baseptr  -l heap -f sprintf > /tmp/ripe_log 2>&1 		NOT POSSIBLE
sim-outorder -config sa1core.cfg simf -t direct -i createfile -c baseptr  -l heap -f snprintf > /tmp/ripe_log 2>&1 		NOT POSSIBLE
sim-outorder -config sa1core.cfg simf -t direct -i createfile -c baseptr  -l heap -f strcat > /tmp/ripe_log 2>&1 		NOT POSSIBLE
sim-outorder -config sa1core.cfg simf -t direct -i createfile -c baseptr  -l heap -f strncat > /tmp/ripe_log 2>&1 		NOT POSSIBLE
sim-outorder -config sa1core.cfg simf -t direct -i createfile -c baseptr  -l heap -f sscanf > /tmp/ripe_log 2>&1 		NOT POSSIBLE
sim-outorder -config sa1core.cfg simf -t direct -i createfile -c baseptr  -l heap -f fscanf > /tmp/ripe_log 2>&1 		NOT POSSIBLE
sim-outorder -config sa1core.cfg simf -t direct -i createfile -c baseptr  -l heap -f homebrew > /tmp/ripe_log 2>&1 		NOT POSSIBLE
sim-outorder -config sa1core.cfg simf -t direct -i createfile -c funcptrstackvar  -l heap -f memcpy > /tmp/ripe_log 2>&1 		NOT POSSIBLE
sim-outorder -config sa1core.cfg simf -t direct -i createfile -c funcptrstackvar  -l heap -f strcpy > /tmp/ripe_log 2>&1 		NOT POSSIBLE
sim-outorder -config sa1core.cfg simf -t direct -i createfile -c funcptrstackvar  -l heap -f strncpy > /tmp/ripe_log 2>&1 		NOT POSSIBLE
sim-outorder -config sa1core.cfg simf -t direct -i createfile -c funcptrstackvar  -l heap -f sprintf > /tmp/ripe_log 2>&1 		NOT POSSIBLE
sim-outorder -config sa1core.cfg simf -t direct -i createfile -c funcptrstackvar  -l heap -f snprintf > /tmp/ripe_log 2>&1 		NOT POSSIBLE
sim-outorder -config sa1core.cfg simf -t direct -i createfile -c funcptrstackvar  -l heap -f strcat > /tmp/ripe_log 2>&1 		NOT POSSIBLE
sim-outorder -config sa1core.cfg simf -t direct -i createfile -c funcptrstackvar  -l heap -f strncat > /tmp/ripe_log 2>&1 		NOT POSSIBLE
sim-outorder -config sa1core.cfg simf -t direct -i createfile -c funcptrstackvar  -l heap -f sscanf > /tmp/ripe_log 2>&1 		NOT POSSIBLE
sim-outorder -config sa1core.cfg simf -t direct -i createfile -c funcptrstackvar  -l heap -f fscanf > /tmp/ripe_log 2>&1 		NOT POSSIBLE
sim-outorder -config sa1core.cfg simf -t direct -i createfile -c funcptrstackvar  -l heap -f homebrew > /tmp/ripe_log 2>&1 		NOT POSSIBLE
sim-outorder -config sa1core.cfg simf -t direct -i createfile -c funcptrstackparam  -l heap -f memcpy > /tmp/ripe_log 2>&1 		NOT POSSIBLE
sim-outorder -config sa1core.cfg simf -t direct -i createfile -c funcptrstackparam  -l heap -f strcpy > /tmp/ripe_log 2>&1 		NOT POSSIBLE
sim-outorder -config sa1core.cfg simf -t direct -i createfile -c funcptrstackparam  -l heap -f strncpy > /tmp/ripe_log 2>&1 		NOT POSSIBLE
sim-outorder -config sa1core.cfg simf -t direct -i createfile -c funcptrstackparam  -l heap -f sprintf > /tmp/ripe_log 2>&1 		NOT POSSIBLE
sim-outorder -config sa1core.cfg simf -t direct -i createfile -c funcptrstackparam  -l heap -f snprintf > /tmp/ripe_log 2>&1 		NOT POSSIBLE
sim-outorder -config sa1core.cfg simf -t direct -i createfile -c funcptrstackparam  -l heap -f strcat > /tmp/ripe_log 2>&1 		NOT POSSIBLE
sim-outorder -config sa1core.cfg simf -t direct -i createfile -c funcptrstackparam  -l heap -f strncat > /tmp/ripe_log 2>&1 		NOT POSSIBLE
sim-outorder -config sa1core.cfg simf -t direct -i createfile -c funcptrstackparam  -l heap -f sscanf > /tmp/ripe_log 2>&1 		NOT POSSIBLE
sim-outorder -config sa1core.cfg simf -t direct -i createfile -c funcptrstackparam  -l heap -f fscanf > /tmp/ripe_log 2>&1 		NOT POSSIBLE
sim-outorder -config sa1core.cfg simf -t direct -i createfile -c funcptrstackparam  -l heap -f homebrew > /tmp/ripe_log 2>&1 		NOT POSSIBLE
sim-outorder -config sa1core.cfg simf -t direct -i createfile -c funcptrheap  -l heap -f memcpy > /tmp/ripe_log 2>&1 		FAIL	10 / 10
sim-outorder -config sa1core.cfg simf -t direct -i createfile -c funcptrheap  -l heap -f strcpy > /tmp/ripe_log 2>&1 		FAIL	10 / 10
sim-outorder -config sa1core.cfg simf -t direct -i createfile -c funcptrheap  -l heap -f strncpy > /tmp/ripe_log 2>&1 		FAIL	10 / 10
sim-outorder -config sa1core.cfg simf -t direct -i createfile -c funcptrheap  -l heap -f sprintf > /tmp/ripe_log 2>&1 		FAIL	10 / 10
sim-outorder -config sa1core.cfg simf -t direct -i createfile -c funcptrheap  -l heap -f snprintf > /tmp/ripe_log 2>&1 		FAIL	10 / 10
sim-outorder -config sa1core.cfg simf -t direct -i createfile -c funcptrheap  -l heap -f strcat > /tmp/ripe_log 2>&1 		FAIL	10 / 10
sim-outorder -config sa1core.cfg simf -t direct -i createfile -c funcptrheap  -l heap -f strncat > /tmp/ripe_log 2>&1 		FAIL	10 / 10
sim-outorder -config sa1core.cfg simf -t direct -i createfile -c funcptrheap  -l heap -f sscanf > /tmp/ripe_log 2>&1 		FAIL	10 / 10
sim-outorder -config sa1core.cfg simf -t direct -i createfile -c funcptrheap  -l heap -f fscanf > /tmp/ripe_log 2>&1 		FAIL	10 / 10
sim-outorder -config sa1core.cfg simf -t direct -i createfile -c funcptrheap  -l heap -f homebrew > /tmp/ripe_log 2>&1 		FAIL	10 / 10
sim-outorder -config sa1core.cfg simf -t direct -i createfile -c funcptrbss  -l heap -f memcpy > /tmp/ripe_log 2>&1 		NOT POSSIBLE
sim-outorder -config sa1core.cfg simf -t direct -i createfile -c funcptrbss  -l heap -f strcpy > /tmp/ripe_log 2>&1 		NOT POSSIBLE
sim-outorder -config sa1core.cfg simf -t direct -i createfile -c funcptrbss  -l heap -f strncpy > /tmp/ripe_log 2>&1 		NOT POSSIBLE
sim-outorder -config sa1core.cfg simf -t direct -i createfile -c funcptrbss  -l heap -f sprintf > /tmp/ripe_log 2>&1 		NOT POSSIBLE
sim-outorder -config sa1core.cfg simf -t direct -i createfile -c funcptrbss  -l heap -f snprintf > /tmp/ripe_log 2>&1 		NOT POSSIBLE
sim-outorder -config sa1core.cfg simf -t direct -i createfile -c funcptrbss  -l heap -f strcat > /tmp/ripe_log 2>&1 		NOT POSSIBLE
sim-outorder -config sa1core.cfg simf -t direct -i createfile -c funcptrbss  -l heap -f strncat > /tmp/ripe_log 2>&1 		NOT POSSIBLE
sim-outorder -config sa1core.cfg simf -t direct -i createfile -c funcptrbss  -l heap -f sscanf > /tmp/ripe_log 2>&1 		NOT POSSIBLE
sim-outorder -config sa1core.cfg simf -t direct -i createfile -c funcptrbss  -l heap -f fscanf > /tmp/ripe_log 2>&1 		NOT POSSIBLE
sim-outorder -config sa1core.cfg simf -t direct -i createfile -c funcptrbss  -l heap -f homebrew > /tmp/ripe_log 2>&1 		NOT POSSIBLE
sim-outorder -config sa1core.cfg simf -t direct -i createfile -c funcptrdata  -l heap -f memcpy > /tmp/ripe_log 2>&1 		NOT POSSIBLE
sim-outorder -config sa1core.cfg simf -t direct -i createfile -c funcptrdata  -l heap -f strcpy > /tmp/ripe_log 2>&1 		NOT POSSIBLE
sim-outorder -config sa1core.cfg simf -t direct -i createfile -c funcptrdata  -l heap -f strncpy > /tmp/ripe_log 2>&1 		NOT POSSIBLE
sim-outorder -config sa1core.cfg simf -t direct -i createfile -c funcptrdata  -l heap -f sprintf > /tmp/ripe_log 2>&1 		NOT POSSIBLE
sim-outorder -config sa1core.cfg simf -t direct -i createfile -c funcptrdata  -l heap -f snprintf > /tmp/ripe_log 2>&1 		NOT POSSIBLE
sim-outorder -config sa1core.cfg simf -t direct -i createfile -c funcptrdata  -l heap -f strcat > /tmp/ripe_log 2>&1 		NOT POSSIBLE
sim-outorder -config sa1core.cfg simf -t direct -i createfile -c funcptrdata  -l heap -f strncat > /tmp/ripe_log 2>&1 		NOT POSSIBLE
sim-outorder -config sa1core.cfg simf -t direct -i createfile -c funcptrdata  -l heap -f sscanf > /tmp/ripe_log 2>&1 		NOT POSSIBLE
sim-outorder -config sa1core.cfg simf -t direct -i createfile -c funcptrdata  -l heap -f fscanf > /tmp/ripe_log 2>&1 		NOT POSSIBLE
sim-outorder -config sa1core.cfg simf -t direct -i createfile -c funcptrdata  -l heap -f homebrew > /tmp/ripe_log 2>&1 		NOT POSSIBLE
sim-outorder -config sa1core.cfg simf -t direct -i createfile -c longjmpstackvar  -l heap -f memcpy > /tmp/ripe_log 2>&1 		NOT POSSIBLE
sim-outorder -config sa1core.cfg simf -t direct -i createfile -c longjmpstackvar  -l heap -f strcpy > /tmp/ripe_log 2>&1 		NOT POSSIBLE
sim-outorder -config sa1core.cfg simf -t direct -i createfile -c longjmpstackvar  -l heap -f strncpy > /tmp/ripe_log 2>&1 		NOT POSSIBLE
sim-outorder -config sa1core.cfg simf -t direct -i createfile -c longjmpstackvar  -l heap -f sprintf > /tmp/ripe_log 2>&1 		NOT POSSIBLE
sim-outorder -config sa1core.cfg simf -t direct -i createfile -c longjmpstackvar  -l heap -f snprintf > /tmp/ripe_log 2>&1 		NOT POSSIBLE
sim-outorder -config sa1core.cfg simf -t direct -i createfile -c longjmpstackvar  -l heap -f strcat > /tmp/ripe_log 2>&1 		NOT POSSIBLE
sim-outorder -config sa1core.cfg simf -t direct -i createfile -c longjmpstackvar  -l heap -f strncat > /tmp/ripe_log 2>&1 		NOT POSSIBLE
sim-outorder -config sa1core.cfg simf -t direct -i createfile -c longjmpstackvar  -l heap -f sscanf > /tmp/ripe_log 2>&1 		NOT POSSIBLE
sim-outorder -config sa1core.cfg simf -t direct -i createfile -c longjmpstackvar  -l heap -f fscanf > /tmp/ripe_log 2>&1 		NOT POSSIBLE
sim-outorder -config sa1core.cfg simf -t direct -i createfile -c longjmpstackvar  -l heap -f homebrew > /tmp/ripe_log 2>&1 		NOT POSSIBLE
sim-outorder -config sa1core.cfg simf -t direct -i createfile -c longjmpstackparam  -l heap -f memcpy > /tmp/ripe_log 2>&1 		NOT POSSIBLE
sim-outorder -config sa1core.cfg simf -t direct -i createfile -c longjmpstackparam  -l heap -f strcpy > /tmp/ripe_log 2>&1 		NOT POSSIBLE
sim-outorder -config sa1core.cfg simf -t direct -i createfile -c longjmpstackparam  -l heap -f strncpy > /tmp/ripe_log 2>&1 		NOT POSSIBLE
sim-outorder -config sa1core.cfg simf -t direct -i createfile -c longjmpstackparam  -l heap -f sprintf > /tmp/ripe_log 2>&1 		NOT POSSIBLE
sim-outorder -config sa1core.cfg simf -t direct -i createfile -c longjmpstackparam  -l heap -f snprintf > /tmp/ripe_log 2>&1 		NOT POSSIBLE
sim-outorder -config sa1core.cfg simf -t direct -i createfile -c longjmpstackparam  -l heap -f strcat > /tmp/ripe_log 2>&1 		NOT POSSIBLE
sim-outorder -config sa1core.cfg simf -t direct -i createfile -c longjmpstackparam  -l heap -f strncat > /tmp/ripe_log 2>&1 		NOT POSSIBLE
sim-outorder -config sa1core.cfg simf -t direct -i createfile -c longjmpstackparam  -l heap -f sscanf > /tmp/ripe_log 2>&1 		NOT POSSIBLE
sim-outorder -config sa1core.cfg simf -t direct -i createfile -c longjmpstackparam  -l heap -f fscanf > /tmp/ripe_log 2>&1 		NOT POSSIBLE
sim-outorder -config sa1core.cfg simf -t direct -i createfile -c longjmpstackparam  -l heap -f homebrew > /tmp/ripe_log 2>&1 		NOT POSSIBLE
sim-outorder -config sa1core.cfg simf -t direct -i createfile -c longjmpheap  -l heap -f memcpy > /tmp/ripe_log 2>&1 		FAIL	10 / 10
sim-outorder -config sa1core.cfg simf -t direct -i createfile -c longjmpheap  -l heap -f strcpy > /tmp/ripe_log 2>&1 		FAIL	10 / 10
sim-outorder -config sa1core.cfg simf -t direct -i createfile -c longjmpheap  -l heap -f strncpy > /tmp/ripe_log 2>&1 		FAIL	10 / 10
sim-outorder -config sa1core.cfg simf -t direct -i createfile -c longjmpheap  -l heap -f sprintf > /tmp/ripe_log 2>&1 		FAIL	10 / 10
sim-outorder -config sa1core.cfg simf -t direct -i createfile -c longjmpheap  -l heap -f snprintf > /tmp/ripe_log 2>&1 		FAIL	10 / 10
sim-outorder -config sa1core.cfg simf -t direct -i createfile -c longjmpheap  -l heap -f strcat > /tmp/ripe_log 2>&1 		FAIL	10 / 10
sim-outorder -config sa1core.cfg simf -t direct -i createfile -c longjmpheap  -l heap -f strncat > /tmp/ripe_log 2>&1 		FAIL	10 / 10
sim-outorder -config sa1core.cfg simf -t direct -i createfile -c longjmpheap  -l heap -f sscanf > /tmp/ripe_log 2>&1 		FAIL	10 / 10
sim-outorder -config sa1core.cfg simf -t direct -i createfile -c longjmpheap  -l heap -f fscanf > /tmp/ripe_log 2>&1 		FAIL	10 / 10
sim-outorder -config sa1core.cfg simf -t direct -i createfile -c longjmpheap  -l heap -f homebrew > /tmp/ripe_log 2>&1 		FAIL	10 / 10
sim-outorder -config sa1core.cfg simf -t direct -i createfile -c longjmpbss  -l heap -f memcpy > /tmp/ripe_log 2>&1 		NOT POSSIBLE
sim-outorder -config sa1core.cfg simf -t direct -i createfile -c longjmpbss  -l heap -f strcpy > /tmp/ripe_log 2>&1 		NOT POSSIBLE
sim-outorder -config sa1core.cfg simf -t direct -i createfile -c longjmpbss  -l heap -f strncpy > /tmp/ripe_log 2>&1 		NOT POSSIBLE
sim-outorder -config sa1core.cfg simf -t direct -i createfile -c longjmpbss  -l heap -f sprintf > /tmp/ripe_log 2>&1 		NOT POSSIBLE
sim-outorder -config sa1core.cfg simf -t direct -i createfile -c longjmpbss  -l heap -f snprintf > /tmp/ripe_log 2>&1 		NOT POSSIBLE
sim-outorder -config sa1core.cfg simf -t direct -i createfile -c longjmpbss  -l heap -f strcat > /tmp/ripe_log 2>&1 		NOT POSSIBLE
sim-outorder -config sa1core.cfg simf -t direct -i createfile -c longjmpbss  -l heap -f strncat > /tmp/ripe_log 2>&1 		NOT POSSIBLE
sim-outorder -config sa1core.cfg simf -t direct -i createfile -c longjmpbss  -l heap -f sscanf > /tmp/ripe_log 2>&1 		NOT POSSIBLE
sim-outorder -config sa1core.cfg simf -t direct -i createfile -c longjmpbss  -l heap -f fscanf > /tmp/ripe_log 2>&1 		NOT POSSIBLE
sim-outorder -config sa1core.cfg simf -t direct -i createfile -c longjmpbss  -l heap -f homebrew > /tmp/ripe_log 2>&1 		NOT POSSIBLE
sim-outorder -config sa1core.cfg simf -t direct -i createfile -c longjmpdata  -l heap -f memcpy > /tmp/ripe_log 2>&1 		NOT POSSIBLE
sim-outorder -config sa1core.cfg simf -t direct -i createfile -c longjmpdata  -l heap -f strcpy > /tmp/ripe_log 2>&1 		NOT POSSIBLE
sim-outorder -config sa1core.cfg simf -t direct -i createfile -c longjmpdata  -l heap -f strncpy > /tmp/ripe_log 2>&1 		NOT POSSIBLE
sim-outorder -config sa1core.cfg simf -t direct -i createfile -c longjmpdata  -l heap -f sprintf > /tmp/ripe_log 2>&1 		NOT POSSIBLE
sim-outorder -config sa1core.cfg simf -t direct -i createfile -c longjmpdata  -l heap -f snprintf > /tmp/ripe_log 2>&1 		NOT POSSIBLE
sim-outorder -config sa1core.cfg simf -t direct -i createfile -c longjmpdata  -l heap -f strcat > /tmp/ripe_log 2>&1 		NOT POSSIBLE
sim-outorder -config sa1core.cfg simf -t direct -i createfile -c longjmpdata  -l heap -f strncat > /tmp/ripe_log 2>&1 		NOT POSSIBLE
sim-outorder -config sa1core.cfg simf -t direct -i createfile -c longjmpdata  -l heap -f sscanf > /tmp/ripe_log 2>&1 		NOT POSSIBLE
sim-outorder -config sa1core.cfg simf -t direct -i createfile -c longjmpdata  -l heap -f fscanf > /tmp/ripe_log 2>&1 		NOT POSSIBLE
sim-outorder -config sa1core.cfg simf -t direct -i createfile -c longjmpdata  -l heap -f homebrew > /tmp/ripe_log 2>&1 		NOT POSSIBLE
sim-outorder -config sa1core.cfg simf -t direct -i createfile -c structfuncptrstack  -l heap -f memcpy > /tmp/ripe_log 2>&1 		NOT POSSIBLE
sim-outorder -config sa1core.cfg simf -t direct -i createfile -c structfuncptrstack  -l heap -f strcpy > /tmp/ripe_log 2>&1 		NOT POSSIBLE
sim-outorder -config sa1core.cfg simf -t direct -i createfile -c structfuncptrstack  -l heap -f strncpy > /tmp/ripe_log 2>&1 		NOT POSSIBLE
sim-outorder -config sa1core.cfg simf -t direct -i createfile -c structfuncptrstack  -l heap -f sprintf > /tmp/ripe_log 2>&1 		NOT POSSIBLE
sim-outorder -config sa1core.cfg simf -t direct -i createfile -c structfuncptrstack  -l heap -f snprintf > /tmp/ripe_log 2>&1 		NOT POSSIBLE
sim-outorder -config sa1core.cfg simf -t direct -i createfile -c structfuncptrstack  -l heap -f strcat > /tmp/ripe_log 2>&1 		NOT POSSIBLE
sim-outorder -config sa1core.cfg simf -t direct -i createfile -c structfuncptrstack  -l heap -f strncat > /tmp/ripe_log 2>&1 		NOT POSSIBLE
sim-outorder -config sa1core.cfg simf -t direct -i createfile -c structfuncptrstack  -l heap -f sscanf > /tmp/ripe_log 2>&1 		NOT POSSIBLE
sim-outorder -config sa1core.cfg simf -t direct -i createfile -c structfuncptrstack  -l heap -f fscanf > /tmp/ripe_log 2>&1 		NOT POSSIBLE
sim-outorder -config sa1core.cfg simf -t direct -i createfile -c structfuncptrstack  -l heap -f homebrew > /tmp/ripe_log 2>&1 		NOT POSSIBLE
sim-outorder -config sa1core.cfg simf -t direct -i createfile -c structfuncptrheap  -l heap -f memcpy > /tmp/ripe_log 2>&1 		FAIL	10 / 10
sim-outorder -config sa1core.cfg simf -t direct -i createfile -c structfuncptrheap  -l heap -f strcpy > /tmp/ripe_log 2>&1 		FAIL	10 / 10
sim-outorder -config sa1core.cfg simf -t direct -i createfile -c structfuncptrheap  -l heap -f strncpy > /tmp/ripe_log 2>&1 		FAIL	10 / 10
sim-outorder -config sa1core.cfg simf -t direct -i createfile -c structfuncptrheap  -l heap -f sprintf > /tmp/ripe_log 2>&1 		FAIL	10 / 10
sim-outorder -config sa1core.cfg simf -t direct -i createfile -c structfuncptrheap  -l heap -f snprintf > /tmp/ripe_log 2>&1 		FAIL	10 / 10
sim-outorder -config sa1core.cfg simf -t direct -i createfile -c structfuncptrheap  -l heap -f strcat > /tmp/ripe_log 2>&1 		FAIL	10 / 10
sim-outorder -config sa1core.cfg simf -t direct -i createfile -c structfuncptrheap  -l heap -f strncat > /tmp/ripe_log 2>&1 		FAIL	10 / 10
sim-outorder -config sa1core.cfg simf -t direct -i createfile -c structfuncptrheap  -l heap -f sscanf > /tmp/ripe_log 2>&1 		FAIL	10 / 10
sim-outorder -config sa1core.cfg simf -t direct -i createfile -c structfuncptrheap  -l heap -f fscanf > /tmp/ripe_log 2>&1 		FAIL	10 / 10
sim-outorder -config sa1core.cfg simf -t direct -i createfile -c structfuncptrheap  -l heap -f homebrew > /tmp/ripe_log 2>&1 		FAIL	10 / 10
sim-outorder -config sa1core.cfg simf -t direct -i createfile -c structfuncptrdata  -l heap -f memcpy > /tmp/ripe_log 2>&1 		NOT POSSIBLE
sim-outorder -config sa1core.cfg simf -t direct -i createfile -c structfuncptrdata  -l heap -f strcpy > /tmp/ripe_log 2>&1 		NOT POSSIBLE
sim-outorder -config sa1core.cfg simf -t direct -i createfile -c structfuncptrdata  -l heap -f strncpy > /tmp/ripe_log 2>&1 		NOT POSSIBLE
sim-outorder -config sa1core.cfg simf -t direct -i createfile -c structfuncptrdata  -l heap -f sprintf > /tmp/ripe_log 2>&1 		NOT POSSIBLE
sim-outorder -config sa1core.cfg simf -t direct -i createfile -c structfuncptrdata  -l heap -f snprintf > /tmp/ripe_log 2>&1 		NOT POSSIBLE
sim-outorder -config sa1core.cfg simf -t direct -i createfile -c structfuncptrdata  -l heap -f strcat > /tmp/ripe_log 2>&1 		NOT POSSIBLE
sim-outorder -config sa1core.cfg simf -t direct -i createfile -c structfuncptrdata  -l heap -f strncat > /tmp/ripe_log 2>&1 		NOT POSSIBLE
sim-outorder -config sa1core.cfg simf -t direct -i createfile -c structfuncptrdata  -l heap -f sscanf > /tmp/ripe_log 2>&1 		NOT POSSIBLE
sim-outorder -config sa1core.cfg simf -t direct -i createfile -c structfuncptrdata  -l heap -f fscanf > /tmp/ripe_log 2>&1 		NOT POSSIBLE
sim-outorder -config sa1core.cfg simf -t direct -i createfile -c structfuncptrdata  -l heap -f homebrew > /tmp/ripe_log 2>&1 		NOT POSSIBLE
sim-outorder -config sa1core.cfg simf -t direct -i createfile -c structfuncptrbss  -l heap -f memcpy > /tmp/ripe_log 2>&1 		NOT POSSIBLE
sim-outorder -config sa1core.cfg simf -t direct -i createfile -c structfuncptrbss  -l heap -f strcpy > /tmp/ripe_log 2>&1 		NOT POSSIBLE
sim-outorder -config sa1core.cfg simf -t direct -i createfile -c structfuncptrbss  -l heap -f strncpy > /tmp/ripe_log 2>&1 		NOT POSSIBLE
sim-outorder -config sa1core.cfg simf -t direct -i createfile -c structfuncptrbss  -l heap -f sprintf > /tmp/ripe_log 2>&1 		NOT POSSIBLE
sim-outorder -config sa1core.cfg simf -t direct -i createfile -c structfuncptrbss  -l heap -f snprintf > /tmp/ripe_log 2>&1 		NOT POSSIBLE
sim-outorder -config sa1core.cfg simf -t direct -i createfile -c structfuncptrbss  -l heap -f strcat > /tmp/ripe_log 2>&1 		NOT POSSIBLE
sim-outorder -config sa1core.cfg simf -t direct -i createfile -c structfuncptrbss  -l heap -f strncat > /tmp/ripe_log 2>&1 		NOT POSSIBLE
sim-outorder -config sa1core.cfg simf -t direct -i createfile -c structfuncptrbss  -l heap -f sscanf > /tmp/ripe_log 2>&1 		NOT POSSIBLE
sim-outorder -config sa1core.cfg simf -t direct -i createfile -c structfuncptrbss  -l heap -f fscanf > /tmp/ripe_log 2>&1 		NOT POSSIBLE
sim-outorder -config sa1core.cfg simf -t direct -i createfile -c structfuncptrbss  -l heap -f homebrew > /tmp/ripe_log 2>&1 		NOT POSSIBLE
sim-outorder -config sa1core.cfg simf -t direct -i createfile -c ret  -l bss -f memcpy > /tmp/ripe_log 2>&1 		NOT POSSIBLE
sim-outorder -config sa1core.cfg simf -t direct -i createfile -c ret  -l bss -f strcpy > /tmp/ripe_log 2>&1 		NOT POSSIBLE
sim-outorder -config sa1core.cfg simf -t direct -i createfile -c ret  -l bss -f strncpy > /tmp/ripe_log 2>&1 		NOT POSSIBLE
sim-outorder -config sa1core.cfg simf -t direct -i createfile -c ret  -l bss -f sprintf > /tmp/ripe_log 2>&1 		NOT POSSIBLE
sim-outorder -config sa1core.cfg simf -t direct -i createfile -c ret  -l bss -f snprintf > /tmp/ripe_log 2>&1 		NOT POSSIBLE
sim-outorder -config sa1core.cfg simf -t direct -i createfile -c ret  -l bss -f strcat > /tmp/ripe_log 2>&1 		NOT POSSIBLE
sim-outorder -config sa1core.cfg simf -t direct -i createfile -c ret  -l bss -f strncat > /tmp/ripe_log 2>&1 		NOT POSSIBLE
sim-outorder -config sa1core.cfg simf -t direct -i createfile -c ret  -l bss -f sscanf > /tmp/ripe_log 2>&1 		NOT POSSIBLE
sim-outorder -config sa1core.cfg simf -t direct -i createfile -c ret  -l bss -f fscanf > /tmp/ripe_log 2>&1 		NOT POSSIBLE
sim-outorder -config sa1core.cfg simf -t direct -i createfile -c ret  -l bss -f homebrew > /tmp/ripe_log 2>&1 		NOT POSSIBLE
sim-outorder -config sa1core.cfg simf -t direct -i createfile -c baseptr  -l bss -f memcpy > /tmp/ripe_log 2>&1 		NOT POSSIBLE
sim-outorder -config sa1core.cfg simf -t direct -i createfile -c baseptr  -l bss -f strcpy > /tmp/ripe_log 2>&1 		NOT POSSIBLE
sim-outorder -config sa1core.cfg simf -t direct -i createfile -c baseptr  -l bss -f strncpy > /tmp/ripe_log 2>&1 		NOT POSSIBLE
sim-outorder -config sa1core.cfg simf -t direct -i createfile -c baseptr  -l bss -f sprintf > /tmp/ripe_log 2>&1 		NOT POSSIBLE
sim-outorder -config sa1core.cfg simf -t direct -i createfile -c baseptr  -l bss -f snprintf > /tmp/ripe_log 2>&1 		NOT POSSIBLE
sim-outorder -config sa1core.cfg simf -t direct -i createfile -c baseptr  -l bss -f strcat > /tmp/ripe_log 2>&1 		NOT POSSIBLE
sim-outorder -config sa1core.cfg simf -t direct -i createfile -c baseptr  -l bss -f strncat > /tmp/ripe_log 2>&1 		NOT POSSIBLE
sim-outorder -config sa1core.cfg simf -t direct -i createfile -c baseptr  -l bss -f sscanf > /tmp/ripe_log 2>&1 		NOT POSSIBLE
sim-outorder -config sa1core.cfg simf -t direct -i createfile -c baseptr  -l bss -f fscanf > /tmp/ripe_log 2>&1 		NOT POSSIBLE
sim-outorder -config sa1core.cfg simf -t direct -i createfile -c baseptr  -l bss -f homebrew > /tmp/ripe_log 2>&1 		NOT POSSIBLE
sim-outorder -config sa1core.cfg simf -t direct -i createfile -c funcptrstackvar  -l bss -f memcpy > /tmp/ripe_log 2>&1 		NOT POSSIBLE
sim-outorder -config sa1core.cfg simf -t direct -i createfile -c funcptrstackvar  -l bss -f strcpy > /tmp/ripe_log 2>&1 		NOT POSSIBLE
sim-outorder -config sa1core.cfg simf -t direct -i createfile -c funcptrstackvar  -l bss -f strncpy > /tmp/ripe_log 2>&1 		NOT POSSIBLE
sim-outorder -config sa1core.cfg simf -t direct -i createfile -c funcptrstackvar  -l bss -f sprintf > /tmp/ripe_log 2>&1 		NOT POSSIBLE
sim-outorder -config sa1core.cfg simf -t direct -i createfile -c funcptrstackvar  -l bss -f snprintf > /tmp/ripe_log 2>&1 		NOT POSSIBLE
sim-outorder -config sa1core.cfg simf -t direct -i createfile -c funcptrstackvar  -l bss -f strcat > /tmp/ripe_log 2>&1 		NOT POSSIBLE
sim-outorder -config sa1core.cfg simf -t direct -i createfile -c funcptrstackvar  -l bss -f strncat > /tmp/ripe_log 2>&1 		NOT POSSIBLE
sim-outorder -config sa1core.cfg simf -t direct -i createfile -c funcptrstackvar  -l bss -f sscanf > /tmp/ripe_log 2>&1 		NOT POSSIBLE
sim-outorder -config sa1core.cfg simf -t direct -i createfile -c funcptrstackvar  -l bss -f fscanf > /tmp/ripe_log 2>&1 		NOT POSSIBLE
sim-outorder -config sa1core.cfg simf -t direct -i createfile -c funcptrstackvar  -l bss -f homebrew > /tmp/ripe_log 2>&1 		NOT POSSIBLE
sim-outorder -config sa1core.cfg simf -t direct -i createfile -c funcptrstackparam  -l bss -f memcpy > /tmp/ripe_log 2>&1 		NOT POSSIBLE
sim-outorder -config sa1core.cfg simf -t direct -i createfile -c funcptrstackparam  -l bss -f strcpy > /tmp/ripe_log 2>&1 		NOT POSSIBLE
sim-outorder -config sa1core.cfg simf -t direct -i createfile -c funcptrstackparam  -l bss -f strncpy > /tmp/ripe_log 2>&1 		NOT POSSIBLE
sim-outorder -config sa1core.cfg simf -t direct -i createfile -c funcptrstackparam  -l bss -f sprintf > /tmp/ripe_log 2>&1 		NOT POSSIBLE
sim-outorder -config sa1core.cfg simf -t direct -i createfile -c funcptrstackparam  -l bss -f snprintf > /tmp/ripe_log 2>&1 		NOT POSSIBLE
sim-outorder -config sa1core.cfg simf -t direct -i createfile -c funcptrstackparam  -l bss -f strcat > /tmp/ripe_log 2>&1 		NOT POSSIBLE
sim-outorder -config sa1core.cfg simf -t direct -i createfile -c funcptrstackparam  -l bss -f strncat > /tmp/ripe_log 2>&1 		NOT POSSIBLE
sim-outorder -config sa1core.cfg simf -t direct -i createfile -c funcptrstackparam  -l bss -f sscanf > /tmp/ripe_log 2>&1 		NOT POSSIBLE
sim-outorder -config sa1core.cfg simf -t direct -i createfile -c funcptrstackparam  -l bss -f fscanf > /tmp/ripe_log 2>&1 		NOT POSSIBLE
sim-outorder -config sa1core.cfg simf -t direct -i createfile -c funcptrstackparam  -l bss -f homebrew > /tmp/ripe_log 2>&1 		NOT POSSIBLE
sim-outorder -config sa1core.cfg simf -t direct -i createfile -c funcptrheap  -l bss -f memcpy > /tmp/ripe_log 2>&1 		NOT POSSIBLE
sim-outorder -config sa1core.cfg simf -t direct -i createfile -c funcptrheap  -l bss -f strcpy > /tmp/ripe_log 2>&1 		NOT POSSIBLE
sim-outorder -config sa1core.cfg simf -t direct -i createfile -c funcptrheap  -l bss -f strncpy > /tmp/ripe_log 2>&1 		NOT POSSIBLE
sim-outorder -config sa1core.cfg simf -t direct -i createfile -c funcptrheap  -l bss -f sprintf > /tmp/ripe_log 2>&1 		NOT POSSIBLE
sim-outorder -config sa1core.cfg simf -t direct -i createfile -c funcptrheap  -l bss -f snprintf > /tmp/ripe_log 2>&1 		NOT POSSIBLE
sim-outorder -config sa1core.cfg simf -t direct -i createfile -c funcptrheap  -l bss -f strcat > /tmp/ripe_log 2>&1 		NOT POSSIBLE
sim-outorder -config sa1core.cfg simf -t direct -i createfile -c funcptrheap  -l bss -f strncat > /tmp/ripe_log 2>&1 		NOT POSSIBLE
sim-outorder -config sa1core.cfg simf -t direct -i createfile -c funcptrheap  -l bss -f sscanf > /tmp/ripe_log 2>&1 		NOT POSSIBLE
sim-outorder -config sa1core.cfg simf -t direct -i createfile -c funcptrheap  -l bss -f fscanf > /tmp/ripe_log 2>&1 		NOT POSSIBLE
sim-outorder -config sa1core.cfg simf -t direct -i createfile -c funcptrheap  -l bss -f homebrew > /tmp/ripe_log 2>&1 		NOT POSSIBLE
sim-outorder -config sa1core.cfg simf -t direct -i createfile -c funcptrbss  -l bss -f memcpy > /tmp/ripe_log 2>&1 		FAIL	0 / 10
sim-outorder -config sa1core.cfg simf -t direct -i createfile -c funcptrbss  -l bss -f strcpy > /tmp/ripe_log 2>&1 		FAIL	0 / 10
sim-outorder -config sa1core.cfg simf -t direct -i createfile -c funcptrbss  -l bss -f strncpy > /tmp/ripe_log 2>&1 		FAIL	0 / 10
sim-outorder -config sa1core.cfg simf -t direct -i createfile -c funcptrbss  -l bss -f sprintf > /tmp/ripe_log 2>&1 		FAIL	0 / 10
sim-outorder -config sa1core.cfg simf -t direct -i createfile -c funcptrbss  -l bss -f snprintf > /tmp/ripe_log 2>&1 		FAIL	0 / 10
sim-outorder -config sa1core.cfg simf -t direct -i createfile -c funcptrbss  -l bss -f strcat > /tmp/ripe_log 2>&1 		FAIL	0 / 10
sim-outorder -config sa1core.cfg simf -t direct -i createfile -c funcptrbss  -l bss -f strncat > /tmp/ripe_log 2>&1 		FAIL	0 / 10
sim-outorder -config sa1core.cfg simf -t direct -i createfile -c funcptrbss  -l bss -f sscanf > /tmp/ripe_log 2>&1 		FAIL	0 / 10
sim-outorder -config sa1core.cfg simf -t direct -i createfile -c funcptrbss  -l bss -f fscanf > /tmp/ripe_log 2>&1 		FAIL	0 / 10
sim-outorder -config sa1core.cfg simf -t direct -i createfile -c funcptrbss  -l bss -f homebrew > /tmp/ripe_log 2>&1 		FAIL	0 / 10
sim-outorder -config sa1core.cfg simf -t direct -i createfile -c funcptrdata  -l bss -f memcpy > /tmp/ripe_log 2>&1 		NOT POSSIBLE
sim-outorder -config sa1core.cfg simf -t direct -i createfile -c funcptrdata  -l bss -f strcpy > /tmp/ripe_log 2>&1 		NOT POSSIBLE
sim-outorder -config sa1core.cfg simf -t direct -i createfile -c funcptrdata  -l bss -f strncpy > /tmp/ripe_log 2>&1 		NOT POSSIBLE
sim-outorder -config sa1core.cfg simf -t direct -i createfile -c funcptrdata  -l bss -f sprintf > /tmp/ripe_log 2>&1 		NOT POSSIBLE
sim-outorder -config sa1core.cfg simf -t direct -i createfile -c funcptrdata  -l bss -f snprintf > /tmp/ripe_log 2>&1 		NOT POSSIBLE
sim-outorder -config sa1core.cfg simf -t direct -i createfile -c funcptrdata  -l bss -f strcat > /tmp/ripe_log 2>&1 		NOT POSSIBLE
sim-outorder -config sa1core.cfg simf -t direct -i createfile -c funcptrdata  -l bss -f strncat > /tmp/ripe_log 2>&1 		NOT POSSIBLE
sim-outorder -config sa1core.cfg simf -t direct -i createfile -c funcptrdata  -l bss -f sscanf > /tmp/ripe_log 2>&1 		NOT POSSIBLE
sim-outorder -config sa1core.cfg simf -t direct -i createfile -c funcptrdata  -l bss -f fscanf > /tmp/ripe_log 2>&1 		NOT POSSIBLE
sim-outorder -config sa1core.cfg simf -t direct -i createfile -c funcptrdata  -l bss -f homebrew > /tmp/ripe_log 2>&1 		NOT POSSIBLE
sim-outorder -config sa1core.cfg simf -t direct -i createfile -c longjmpstackvar  -l bss -f memcpy > /tmp/ripe_log 2>&1 		NOT POSSIBLE
sim-outorder -config sa1core.cfg simf -t direct -i createfile -c longjmpstackvar  -l bss -f strcpy > /tmp/ripe_log 2>&1 		NOT POSSIBLE
sim-outorder -config sa1core.cfg simf -t direct -i createfile -c longjmpstackvar  -l bss -f strncpy > /tmp/ripe_log 2>&1 		NOT POSSIBLE
sim-outorder -config sa1core.cfg simf -t direct -i createfile -c longjmpstackvar  -l bss -f sprintf > /tmp/ripe_log 2>&1 		NOT POSSIBLE
sim-outorder -config sa1core.cfg simf -t direct -i createfile -c longjmpstackvar  -l bss -f snprintf > /tmp/ripe_log 2>&1 		NOT POSSIBLE
sim-outorder -config sa1core.cfg simf -t direct -i createfile -c longjmpstackvar  -l bss -f strcat > /tmp/ripe_log 2>&1 		NOT POSSIBLE
sim-outorder -config sa1core.cfg simf -t direct -i createfile -c longjmpstackvar  -l bss -f strncat > /tmp/ripe_log 2>&1 		NOT POSSIBLE
sim-outorder -config sa1core.cfg simf -t direct -i createfile -c longjmpstackvar  -l bss -f sscanf > /tmp/ripe_log 2>&1 		NOT POSSIBLE
sim-outorder -config sa1core.cfg simf -t direct -i createfile -c longjmpstackvar  -l bss -f fscanf > /tmp/ripe_log 2>&1 		NOT POSSIBLE
sim-outorder -config sa1core.cfg simf -t direct -i createfile -c longjmpstackvar  -l bss -f homebrew > /tmp/ripe_log 2>&1 		NOT POSSIBLE
sim-outorder -config sa1core.cfg simf -t direct -i createfile -c longjmpstackparam  -l bss -f memcpy > /tmp/ripe_log 2>&1 		NOT POSSIBLE
sim-outorder -config sa1core.cfg simf -t direct -i createfile -c longjmpstackparam  -l bss -f strcpy > /tmp/ripe_log 2>&1 		NOT POSSIBLE
sim-outorder -config sa1core.cfg simf -t direct -i createfile -c longjmpstackparam  -l bss -f strncpy > /tmp/ripe_log 2>&1 		NOT POSSIBLE
sim-outorder -config sa1core.cfg simf -t direct -i createfile -c longjmpstackparam  -l bss -f sprintf > /tmp/ripe_log 2>&1 		NOT POSSIBLE
sim-outorder -config sa1core.cfg simf -t direct -i createfile -c longjmpstackparam  -l bss -f snprintf > /tmp/ripe_log 2>&1 		NOT POSSIBLE
sim-outorder -config sa1core.cfg simf -t direct -i createfile -c longjmpstackparam  -l bss -f strcat > /tmp/ripe_log 2>&1 		NOT POSSIBLE
sim-outorder -config sa1core.cfg simf -t direct -i createfile -c longjmpstackparam  -l bss -f strncat > /tmp/ripe_log 2>&1 		NOT POSSIBLE
sim-outorder -config sa1core.cfg simf -t direct -i createfile -c longjmpstackparam  -l bss -f sscanf > /tmp/ripe_log 2>&1 		NOT POSSIBLE
sim-outorder -config sa1core.cfg simf -t direct -i createfile -c longjmpstackparam  -l bss -f fscanf > /tmp/ripe_log 2>&1 		NOT POSSIBLE
sim-outorder -config sa1core.cfg simf -t direct -i createfile -c longjmpstackparam  -l bss -f homebrew > /tmp/ripe_log 2>&1 		NOT POSSIBLE
sim-outorder -config sa1core.cfg simf -t direct -i createfile -c longjmpheap  -l bss -f memcpy > /tmp/ripe_log 2>&1 		NOT POSSIBLE
sim-outorder -config sa1core.cfg simf -t direct -i createfile -c longjmpheap  -l bss -f strcpy > /tmp/ripe_log 2>&1 		NOT POSSIBLE
sim-outorder -config sa1core.cfg simf -t direct -i createfile -c longjmpheap  -l bss -f strncpy > /tmp/ripe_log 2>&1 		NOT POSSIBLE
sim-outorder -config sa1core.cfg simf -t direct -i createfile -c longjmpheap  -l bss -f sprintf > /tmp/ripe_log 2>&1 		NOT POSSIBLE
sim-outorder -config sa1core.cfg simf -t direct -i createfile -c longjmpheap  -l bss -f snprintf > /tmp/ripe_log 2>&1 		NOT POSSIBLE
sim-outorder -config sa1core.cfg simf -t direct -i createfile -c longjmpheap  -l bss -f strcat > /tmp/ripe_log 2>&1 		NOT POSSIBLE
sim-outorder -config sa1core.cfg simf -t direct -i createfile -c longjmpheap  -l bss -f strncat > /tmp/ripe_log 2>&1 		NOT POSSIBLE
sim-outorder -config sa1core.cfg simf -t direct -i createfile -c longjmpheap  -l bss -f sscanf > /tmp/ripe_log 2>&1 		NOT POSSIBLE
sim-outorder -config sa1core.cfg simf -t direct -i createfile -c longjmpheap  -l bss -f fscanf > /tmp/ripe_log 2>&1 		NOT POSSIBLE
sim-outorder -config sa1core.cfg simf -t direct -i createfile -c longjmpheap  -l bss -f homebrew > /tmp/ripe_log 2>&1 		NOT POSSIBLE
sim-outorder -config sa1core.cfg simf -t direct -i createfile -c longjmpbss  -l bss -f memcpy > /tmp/ripe_log 2>&1 		FAIL	0 / 10
sim-outorder -config sa1core.cfg simf -t direct -i createfile -c longjmpbss  -l bss -f strcpy > /tmp/ripe_log 2>&1 		FAIL	0 / 10
sim-outorder -config sa1core.cfg simf -t direct -i createfile -c longjmpbss  -l bss -f strncpy > /tmp/ripe_log 2>&1 		FAIL	0 / 10
sim-outorder -config sa1core.cfg simf -t direct -i createfile -c longjmpbss  -l bss -f sprintf > /tmp/ripe_log 2>&1 		FAIL	0 / 10
sim-outorder -config sa1core.cfg simf -t direct -i createfile -c longjmpbss  -l bss -f snprintf > /tmp/ripe_log 2>&1 		FAIL	0 / 10
sim-outorder -config sa1core.cfg simf -t direct -i createfile -c longjmpbss  -l bss -f strcat > /tmp/ripe_log 2>&1 		FAIL	0 / 10
sim-outorder -config sa1core.cfg simf -t direct -i createfile -c longjmpbss  -l bss -f strncat > /tmp/ripe_log 2>&1 		FAIL	0 / 10
sim-outorder -config sa1core.cfg simf -t direct -i createfile -c longjmpbss  -l bss -f sscanf > /tmp/ripe_log 2>&1 		FAIL	0 / 10
sim-outorder -config sa1core.cfg simf -t direct -i createfile -c longjmpbss  -l bss -f fscanf > /tmp/ripe_log 2>&1 		FAIL	0 / 10
sim-outorder -config sa1core.cfg simf -t direct -i createfile -c longjmpbss  -l bss -f homebrew > /tmp/ripe_log 2>&1 		FAIL	0 / 10
sim-outorder -config sa1core.cfg simf -t direct -i createfile -c longjmpdata  -l bss -f memcpy > /tmp/ripe_log 2>&1 		NOT POSSIBLE
sim-outorder -config sa1core.cfg simf -t direct -i createfile -c longjmpdata  -l bss -f strcpy > /tmp/ripe_log 2>&1 		NOT POSSIBLE
sim-outorder -config sa1core.cfg simf -t direct -i createfile -c longjmpdata  -l bss -f strncpy > /tmp/ripe_log 2>&1 		NOT POSSIBLE
sim-outorder -config sa1core.cfg simf -t direct -i createfile -c longjmpdata  -l bss -f sprintf > /tmp/ripe_log 2>&1 		NOT POSSIBLE
sim-outorder -config sa1core.cfg simf -t direct -i createfile -c longjmpdata  -l bss -f snprintf > /tmp/ripe_log 2>&1 		NOT POSSIBLE
sim-outorder -config sa1core.cfg simf -t direct -i createfile -c longjmpdata  -l bss -f strcat > /tmp/ripe_log 2>&1 		NOT POSSIBLE
sim-outorder -config sa1core.cfg simf -t direct -i createfile -c longjmpdata  -l bss -f strncat > /tmp/ripe_log 2>&1 		NOT POSSIBLE
sim-outorder -config sa1core.cfg simf -t direct -i createfile -c longjmpdata  -l bss -f sscanf > /tmp/ripe_log 2>&1 		NOT POSSIBLE
sim-outorder -config sa1core.cfg simf -t direct -i createfile -c longjmpdata  -l bss -f fscanf > /tmp/ripe_log 2>&1 		NOT POSSIBLE
sim-outorder -config sa1core.cfg simf -t direct -i createfile -c longjmpdata  -l bss -f homebrew > /tmp/ripe_log 2>&1 		NOT POSSIBLE
sim-outorder -config sa1core.cfg simf -t direct -i createfile -c structfuncptrstack  -l bss -f memcpy > /tmp/ripe_log 2>&1 		NOT POSSIBLE
sim-outorder -config sa1core.cfg simf -t direct -i createfile -c structfuncptrstack  -l bss -f strcpy > /tmp/ripe_log 2>&1 		NOT POSSIBLE
sim-outorder -config sa1core.cfg simf -t direct -i createfile -c structfuncptrstack  -l bss -f strncpy > /tmp/ripe_log 2>&1 		NOT POSSIBLE
sim-outorder -config sa1core.cfg simf -t direct -i createfile -c structfuncptrstack  -l bss -f sprintf > /tmp/ripe_log 2>&1 		NOT POSSIBLE
sim-outorder -config sa1core.cfg simf -t direct -i createfile -c structfuncptrstack  -l bss -f snprintf > /tmp/ripe_log 2>&1 		NOT POSSIBLE
sim-outorder -config sa1core.cfg simf -t direct -i createfile -c structfuncptrstack  -l bss -f strcat > /tmp/ripe_log 2>&1 		NOT POSSIBLE
sim-outorder -config sa1core.cfg simf -t direct -i createfile -c structfuncptrstack  -l bss -f strncat > /tmp/ripe_log 2>&1 		NOT POSSIBLE
sim-outorder -config sa1core.cfg simf -t direct -i createfile -c structfuncptrstack  -l bss -f sscanf > /tmp/ripe_log 2>&1 		NOT POSSIBLE
sim-outorder -config sa1core.cfg simf -t direct -i createfile -c structfuncptrstack  -l bss -f fscanf > /tmp/ripe_log 2>&1 		NOT POSSIBLE
sim-outorder -config sa1core.cfg simf -t direct -i createfile -c structfuncptrstack  -l bss -f homebrew > /tmp/ripe_log 2>&1 		NOT POSSIBLE
sim-outorder -config sa1core.cfg simf -t direct -i createfile -c structfuncptrheap  -l bss -f memcpy > /tmp/ripe_log 2>&1 		NOT POSSIBLE
sim-outorder -config sa1core.cfg simf -t direct -i createfile -c structfuncptrheap  -l bss -f strcpy > /tmp/ripe_log 2>&1 		NOT POSSIBLE
sim-outorder -config sa1core.cfg simf -t direct -i createfile -c structfuncptrheap  -l bss -f strncpy > /tmp/ripe_log 2>&1 		NOT POSSIBLE
sim-outorder -config sa1core.cfg simf -t direct -i createfile -c structfuncptrheap  -l bss -f sprintf > /tmp/ripe_log 2>&1 		NOT POSSIBLE
sim-outorder -config sa1core.cfg simf -t direct -i createfile -c structfuncptrheap  -l bss -f snprintf > /tmp/ripe_log 2>&1 		NOT POSSIBLE
sim-outorder -config sa1core.cfg simf -t direct -i createfile -c structfuncptrheap  -l bss -f strcat > /tmp/ripe_log 2>&1 		NOT POSSIBLE
sim-outorder -config sa1core.cfg simf -t direct -i createfile -c structfuncptrheap  -l bss -f strncat > /tmp/ripe_log 2>&1 		NOT POSSIBLE
sim-outorder -config sa1core.cfg simf -t direct -i createfile -c structfuncptrheap  -l bss -f sscanf > /tmp/ripe_log 2>&1 		NOT POSSIBLE
sim-outorder -config sa1core.cfg simf -t direct -i createfile -c structfuncptrheap  -l bss -f fscanf > /tmp/ripe_log 2>&1 		NOT POSSIBLE
sim-outorder -config sa1core.cfg simf -t direct -i createfile -c structfuncptrheap  -l bss -f homebrew > /tmp/ripe_log 2>&1 		NOT POSSIBLE
sim-outorder -config sa1core.cfg simf -t direct -i createfile -c structfuncptrdata  -l bss -f memcpy > /tmp/ripe_log 2>&1 		NOT POSSIBLE
sim-outorder -config sa1core.cfg simf -t direct -i createfile -c structfuncptrdata  -l bss -f strcpy > /tmp/ripe_log 2>&1 		NOT POSSIBLE
sim-outorder -config sa1core.cfg simf -t direct -i createfile -c structfuncptrdata  -l bss -f strncpy > /tmp/ripe_log 2>&1 		NOT POSSIBLE
sim-outorder -config sa1core.cfg simf -t direct -i createfile -c structfuncptrdata  -l bss -f sprintf > /tmp/ripe_log 2>&1 		NOT POSSIBLE
sim-outorder -config sa1core.cfg simf -t direct -i createfile -c structfuncptrdata  -l bss -f snprintf > /tmp/ripe_log 2>&1 		NOT POSSIBLE
sim-outorder -config sa1core.cfg simf -t direct -i createfile -c structfuncptrdata  -l bss -f strcat > /tmp/ripe_log 2>&1 		NOT POSSIBLE
sim-outorder -config sa1core.cfg simf -t direct -i createfile -c structfuncptrdata  -l bss -f strncat > /tmp/ripe_log 2>&1 		NOT POSSIBLE
sim-outorder -config sa1core.cfg simf -t direct -i createfile -c structfuncptrdata  -l bss -f sscanf > /tmp/ripe_log 2>&1 		NOT POSSIBLE
sim-outorder -config sa1core.cfg simf -t direct -i createfile -c structfuncptrdata  -l bss -f fscanf > /tmp/ripe_log 2>&1 		NOT POSSIBLE
sim-outorder -config sa1core.cfg simf -t direct -i createfile -c structfuncptrdata  -l bss -f homebrew > /tmp/ripe_log 2>&1 		NOT POSSIBLE
sim-outorder -config sa1core.cfg simf -t direct -i createfile -c structfuncptrbss  -l bss -f memcpy > /tmp/ripe_log 2>&1 		FAIL	10 / 10
sim-outorder -config sa1core.cfg simf -t direct -i createfile -c structfuncptrbss  -l bss -f strcpy > /tmp/ripe_log 2>&1 		FAIL	10 / 10
sim-outorder -config sa1core.cfg simf -t direct -i createfile -c structfuncptrbss  -l bss -f strncpy > /tmp/ripe_log 2>&1 		FAIL	10 / 10
sim-outorder -config sa1core.cfg simf -t direct -i createfile -c structfuncptrbss  -l bss -f sprintf > /tmp/ripe_log 2>&1 		FAIL	10 / 10
sim-outorder -config sa1core.cfg simf -t direct -i createfile -c structfuncptrbss  -l bss -f snprintf > /tmp/ripe_log 2>&1 		FAIL	10 / 10
sim-outorder -config sa1core.cfg simf -t direct -i createfile -c structfuncptrbss  -l bss -f strcat > /tmp/ripe_log 2>&1 		FAIL	10 / 10
sim-outorder -config sa1core.cfg simf -t direct -i createfile -c structfuncptrbss  -l bss -f strncat > /tmp/ripe_log 2>&1 		FAIL	10 / 10
sim-outorder -config sa1core.cfg simf -t direct -i createfile -c structfuncptrbss  -l bss -f sscanf > /tmp/ripe_log 2>&1 		FAIL	10 / 10
sim-outorder -config sa1core.cfg simf -t direct -i createfile -c structfuncptrbss  -l bss -f fscanf > /tmp/ripe_log 2>&1 		FAIL	10 / 10
sim-outorder -config sa1core.cfg simf -t direct -i createfile -c structfuncptrbss  -l bss -f homebrew > /tmp/ripe_log 2>&1 		FAIL	10 / 10
sim-outorder -config sa1core.cfg simf -t direct -i createfile -c ret  -l data -f memcpy > /tmp/ripe_log 2>&1 		NOT POSSIBLE
sim-outorder -config sa1core.cfg simf -t direct -i createfile -c ret  -l data -f strcpy > /tmp/ripe_log 2>&1 		NOT POSSIBLE
sim-outorder -config sa1core.cfg simf -t direct -i createfile -c ret  -l data -f strncpy > /tmp/ripe_log 2>&1 		NOT POSSIBLE
sim-outorder -config sa1core.cfg simf -t direct -i createfile -c ret  -l data -f sprintf > /tmp/ripe_log 2>&1 		NOT POSSIBLE
sim-outorder -config sa1core.cfg simf -t direct -i createfile -c ret  -l data -f snprintf > /tmp/ripe_log 2>&1 		NOT POSSIBLE
sim-outorder -config sa1core.cfg simf -t direct -i createfile -c ret  -l data -f strcat > /tmp/ripe_log 2>&1 		NOT POSSIBLE
sim-outorder -config sa1core.cfg simf -t direct -i createfile -c ret  -l data -f strncat > /tmp/ripe_log 2>&1 		NOT POSSIBLE
sim-outorder -config sa1core.cfg simf -t direct -i createfile -c ret  -l data -f sscanf > /tmp/ripe_log 2>&1 		NOT POSSIBLE
sim-outorder -config sa1core.cfg simf -t direct -i createfile -c ret  -l data -f fscanf > /tmp/ripe_log 2>&1 		NOT POSSIBLE
sim-outorder -config sa1core.cfg simf -t direct -i createfile -c ret  -l data -f homebrew > /tmp/ripe_log 2>&1 		NOT POSSIBLE
sim-outorder -config sa1core.cfg simf -t direct -i createfile -c baseptr  -l data -f memcpy > /tmp/ripe_log 2>&1 		NOT POSSIBLE
sim-outorder -config sa1core.cfg simf -t direct -i createfile -c baseptr  -l data -f strcpy > /tmp/ripe_log 2>&1 		NOT POSSIBLE
sim-outorder -config sa1core.cfg simf -t direct -i createfile -c baseptr  -l data -f strncpy > /tmp/ripe_log 2>&1 		NOT POSSIBLE
sim-outorder -config sa1core.cfg simf -t direct -i createfile -c baseptr  -l data -f sprintf > /tmp/ripe_log 2>&1 		NOT POSSIBLE
sim-outorder -config sa1core.cfg simf -t direct -i createfile -c baseptr  -l data -f snprintf > /tmp/ripe_log 2>&1 		NOT POSSIBLE
sim-outorder -config sa1core.cfg simf -t direct -i createfile -c baseptr  -l data -f strcat > /tmp/ripe_log 2>&1 		NOT POSSIBLE
sim-outorder -config sa1core.cfg simf -t direct -i createfile -c baseptr  -l data -f strncat > /tmp/ripe_log 2>&1 		NOT POSSIBLE
sim-outorder -config sa1core.cfg simf -t direct -i createfile -c baseptr  -l data -f sscanf > /tmp/ripe_log 2>&1 		NOT POSSIBLE
sim-outorder -config sa1core.cfg simf -t direct -i createfile -c baseptr  -l data -f fscanf > /tmp/ripe_log 2>&1 		NOT POSSIBLE
sim-outorder -config sa1core.cfg simf -t direct -i createfile -c baseptr  -l data -f homebrew > /tmp/ripe_log 2>&1 		NOT POSSIBLE
sim-outorder -config sa1core.cfg simf -t direct -i createfile -c funcptrstackvar  -l data -f memcpy > /tmp/ripe_log 2>&1 		NOT POSSIBLE
sim-outorder -config sa1core.cfg simf -t direct -i createfile -c funcptrstackvar  -l data -f strcpy > /tmp/ripe_log 2>&1 		NOT POSSIBLE
sim-outorder -config sa1core.cfg simf -t direct -i createfile -c funcptrstackvar  -l data -f strncpy > /tmp/ripe_log 2>&1 		NOT POSSIBLE
sim-outorder -config sa1core.cfg simf -t direct -i createfile -c funcptrstackvar  -l data -f sprintf > /tmp/ripe_log 2>&1 		NOT POSSIBLE
sim-outorder -config sa1core.cfg simf -t direct -i createfile -c funcptrstackvar  -l data -f snprintf > /tmp/ripe_log 2>&1 		NOT POSSIBLE
sim-outorder -config sa1core.cfg simf -t direct -i createfile -c funcptrstackvar  -l data -f strcat > /tmp/ripe_log 2>&1 		NOT POSSIBLE
sim-outorder -config sa1core.cfg simf -t direct -i createfile -c funcptrstackvar  -l data -f strncat > /tmp/ripe_log 2>&1 		NOT POSSIBLE
sim-outorder -config sa1core.cfg simf -t direct -i createfile -c funcptrstackvar  -l data -f sscanf > /tmp/ripe_log 2>&1 		NOT POSSIBLE
sim-outorder -config sa1core.cfg simf -t direct -i createfile -c funcptrstackvar  -l data -f fscanf > /tmp/ripe_log 2>&1 		NOT POSSIBLE
sim-outorder -config sa1core.cfg simf -t direct -i createfile -c funcptrstackvar  -l data -f homebrew > /tmp/ripe_log 2>&1 		NOT POSSIBLE
sim-outorder -config sa1core.cfg simf -t direct -i createfile -c funcptrstackparam  -l data -f memcpy > /tmp/ripe_log 2>&1 		NOT POSSIBLE
sim-outorder -config sa1core.cfg simf -t direct -i createfile -c funcptrstackparam  -l data -f strcpy > /tmp/ripe_log 2>&1 		NOT POSSIBLE
sim-outorder -config sa1core.cfg simf -t direct -i createfile -c funcptrstackparam  -l data -f strncpy > /tmp/ripe_log 2>&1 		NOT POSSIBLE
sim-outorder -config sa1core.cfg simf -t direct -i createfile -c funcptrstackparam  -l data -f sprintf > /tmp/ripe_log 2>&1 		NOT POSSIBLE
sim-outorder -config sa1core.cfg simf -t direct -i createfile -c funcptrstackparam  -l data -f snprintf > /tmp/ripe_log 2>&1 		NOT POSSIBLE
sim-outorder -config sa1core.cfg simf -t direct -i createfile -c funcptrstackparam  -l data -f strcat > /tmp/ripe_log 2>&1 		NOT POSSIBLE
sim-outorder -config sa1core.cfg simf -t direct -i createfile -c funcptrstackparam  -l data -f strncat > /tmp/ripe_log 2>&1 		NOT POSSIBLE
sim-outorder -config sa1core.cfg simf -t direct -i createfile -c funcptrstackparam  -l data -f sscanf > /tmp/ripe_log 2>&1 		NOT POSSIBLE
sim-outorder -config sa1core.cfg simf -t direct -i createfile -c funcptrstackparam  -l data -f fscanf > /tmp/ripe_log 2>&1 		NOT POSSIBLE
sim-outorder -config sa1core.cfg simf -t direct -i createfile -c funcptrstackparam  -l data -f homebrew > /tmp/ripe_log 2>&1 		NOT POSSIBLE
sim-outorder -config sa1core.cfg simf -t direct -i createfile -c funcptrheap  -l data -f memcpy > /tmp/ripe_log 2>&1 		NOT POSSIBLE
sim-outorder -config sa1core.cfg simf -t direct -i createfile -c funcptrheap  -l data -f strcpy > /tmp/ripe_log 2>&1 		NOT POSSIBLE
sim-outorder -config sa1core.cfg simf -t direct -i createfile -c funcptrheap  -l data -f strncpy > /tmp/ripe_log 2>&1 		NOT POSSIBLE
sim-outorder -config sa1core.cfg simf -t direct -i createfile -c funcptrheap  -l data -f sprintf > /tmp/ripe_log 2>&1 		NOT POSSIBLE
sim-outorder -config sa1core.cfg simf -t direct -i createfile -c funcptrheap  -l data -f snprintf > /tmp/ripe_log 2>&1 		NOT POSSIBLE
sim-outorder -config sa1core.cfg simf -t direct -i createfile -c funcptrheap  -l data -f strcat > /tmp/ripe_log 2>&1 		NOT POSSIBLE
sim-outorder -config sa1core.cfg simf -t direct -i createfile -c funcptrheap  -l data -f strncat > /tmp/ripe_log 2>&1 		NOT POSSIBLE
sim-outorder -config sa1core.cfg simf -t direct -i createfile -c funcptrheap  -l data -f sscanf > /tmp/ripe_log 2>&1 		NOT POSSIBLE
sim-outorder -config sa1core.cfg simf -t direct -i createfile -c funcptrheap  -l data -f fscanf > /tmp/ripe_log 2>&1 		NOT POSSIBLE
sim-outorder -config sa1core.cfg simf -t direct -i createfile -c funcptrheap  -l data -f homebrew > /tmp/ripe_log 2>&1 		NOT POSSIBLE
sim-outorder -config sa1core.cfg simf -t direct -i createfile -c funcptrbss  -l data -f memcpy > /tmp/ripe_log 2>&1 		NOT POSSIBLE
sim-outorder -config sa1core.cfg simf -t direct -i createfile -c funcptrbss  -l data -f strcpy > /tmp/ripe_log 2>&1 		NOT POSSIBLE
sim-outorder -config sa1core.cfg simf -t direct -i createfile -c funcptrbss  -l data -f strncpy > /tmp/ripe_log 2>&1 		NOT POSSIBLE
sim-outorder -config sa1core.cfg simf -t direct -i createfile -c funcptrbss  -l data -f sprintf > /tmp/ripe_log 2>&1 		NOT POSSIBLE
sim-outorder -config sa1core.cfg simf -t direct -i createfile -c funcptrbss  -l data -f snprintf > /tmp/ripe_log 2>&1 		NOT POSSIBLE
sim-outorder -config sa1core.cfg simf -t direct -i createfile -c funcptrbss  -l data -f strcat > /tmp/ripe_log 2>&1 		NOT POSSIBLE
sim-outorder -config sa1core.cfg simf -t direct -i createfile -c funcptrbss  -l data -f strncat > /tmp/ripe_log 2>&1 		NOT POSSIBLE
sim-outorder -config sa1core.cfg simf -t direct -i createfile -c funcptrbss  -l data -f sscanf > /tmp/ripe_log 2>&1 		NOT POSSIBLE
sim-outorder -config sa1core.cfg simf -t direct -i createfile -c funcptrbss  -l data -f fscanf > /tmp/ripe_log 2>&1 		NOT POSSIBLE
sim-outorder -config sa1core.cfg simf -t direct -i createfile -c funcptrbss  -l data -f homebrew > /tmp/ripe_log 2>&1 		NOT POSSIBLE
sim-outorder -config sa1core.cfg simf -t direct -i createfile -c funcptrdata  -l data -f memcpy > /tmp/ripe_log 2>&1 		FAIL	10 / 10
sim-outorder -config sa1core.cfg simf -t direct -i createfile -c funcptrdata  -l data -f strcpy > /tmp/ripe_log 2>&1 		FAIL	10 / 10
sim-outorder -config sa1core.cfg simf -t direct -i createfile -c funcptrdata  -l data -f strncpy > /tmp/ripe_log 2>&1 		FAIL	10 / 10
sim-outorder -config sa1core.cfg simf -t direct -i createfile -c funcptrdata  -l data -f sprintf > /tmp/ripe_log 2>&1 		FAIL	10 / 10
sim-outorder -config sa1core.cfg simf -t direct -i createfile -c funcptrdata  -l data -f snprintf > /tmp/ripe_log 2>&1 		FAIL	10 / 10
sim-outorder -config sa1core.cfg simf -t direct -i createfile -c funcptrdata  -l data -f strcat > /tmp/ripe_log 2>&1 		FAIL	10 / 10
sim-outorder -config sa1core.cfg simf -t direct -i createfile -c funcptrdata  -l data -f strncat > /tmp/ripe_log 2>&1 		FAIL	10 / 10
sim-outorder -config sa1core.cfg simf -t direct -i createfile -c funcptrdata  -l data -f sscanf > /tmp/ripe_log 2>&1 		FAIL	10 / 10
sim-outorder -config sa1core.cfg simf -t direct -i createfile -c funcptrdata  -l data -f fscanf > /tmp/ripe_log 2>&1 		FAIL	10 / 10
sim-outorder -config sa1core.cfg simf -t direct -i createfile -c funcptrdata  -l data -f homebrew > /tmp/ripe_log 2>&1 		FAIL	10 / 10
sim-outorder -config sa1core.cfg simf -t direct -i createfile -c longjmpstackvar  -l data -f memcpy > /tmp/ripe_log 2>&1 		NOT POSSIBLE
sim-outorder -config sa1core.cfg simf -t direct -i createfile -c longjmpstackvar  -l data -f strcpy > /tmp/ripe_log 2>&1 		NOT POSSIBLE
sim-outorder -config sa1core.cfg simf -t direct -i createfile -c longjmpstackvar  -l data -f strncpy > /tmp/ripe_log 2>&1 		NOT POSSIBLE
sim-outorder -config sa1core.cfg simf -t direct -i createfile -c longjmpstackvar  -l data -f sprintf > /tmp/ripe_log 2>&1 		NOT POSSIBLE
sim-outorder -config sa1core.cfg simf -t direct -i createfile -c longjmpstackvar  -l data -f snprintf > /tmp/ripe_log 2>&1 		NOT POSSIBLE
sim-outorder -config sa1core.cfg simf -t direct -i createfile -c longjmpstackvar  -l data -f strcat > /tmp/ripe_log 2>&1 		NOT POSSIBLE
sim-outorder -config sa1core.cfg simf -t direct -i createfile -c longjmpstackvar  -l data -f strncat > /tmp/ripe_log 2>&1 		NOT POSSIBLE
sim-outorder -config sa1core.cfg simf -t direct -i createfile -c longjmpstackvar  -l data -f sscanf > /tmp/ripe_log 2>&1 		NOT POSSIBLE
sim-outorder -config sa1core.cfg simf -t direct -i createfile -c longjmpstackvar  -l data -f fscanf > /tmp/ripe_log 2>&1 		NOT POSSIBLE
sim-outorder -config sa1core.cfg simf -t direct -i createfile -c longjmpstackvar  -l data -f homebrew > /tmp/ripe_log 2>&1 		NOT POSSIBLE
sim-outorder -config sa1core.cfg simf -t direct -i createfile -c longjmpstackparam  -l data -f memcpy > /tmp/ripe_log 2>&1 		NOT POSSIBLE
sim-outorder -config sa1core.cfg simf -t direct -i createfile -c longjmpstackparam  -l data -f strcpy > /tmp/ripe_log 2>&1 		NOT POSSIBLE
sim-outorder -config sa1core.cfg simf -t direct -i createfile -c longjmpstackparam  -l data -f strncpy > /tmp/ripe_log 2>&1 		NOT POSSIBLE
sim-outorder -config sa1core.cfg simf -t direct -i createfile -c longjmpstackparam  -l data -f sprintf > /tmp/ripe_log 2>&1 		NOT POSSIBLE
sim-outorder -config sa1core.cfg simf -t direct -i createfile -c longjmpstackparam  -l data -f snprintf > /tmp/ripe_log 2>&1 		NOT POSSIBLE
sim-outorder -config sa1core.cfg simf -t direct -i createfile -c longjmpstackparam  -l data -f strcat > /tmp/ripe_log 2>&1 		NOT POSSIBLE
sim-outorder -config sa1core.cfg simf -t direct -i createfile -c longjmpstackparam  -l data -f strncat > /tmp/ripe_log 2>&1 		NOT POSSIBLE
sim-outorder -config sa1core.cfg simf -t direct -i createfile -c longjmpstackparam  -l data -f sscanf > /tmp/ripe_log 2>&1 		NOT POSSIBLE
sim-outorder -config sa1core.cfg simf -t direct -i createfile -c longjmpstackparam  -l data -f fscanf > /tmp/ripe_log 2>&1 		NOT POSSIBLE
sim-outorder -config sa1core.cfg simf -t direct -i createfile -c longjmpstackparam  -l data -f homebrew > /tmp/ripe_log 2>&1 		NOT POSSIBLE
sim-outorder -config sa1core.cfg simf -t direct -i createfile -c longjmpheap  -l data -f memcpy > /tmp/ripe_log 2>&1 		NOT POSSIBLE
sim-outorder -config sa1core.cfg simf -t direct -i createfile -c longjmpheap  -l data -f strcpy > /tmp/ripe_log 2>&1 		NOT POSSIBLE
sim-outorder -config sa1core.cfg simf -t direct -i createfile -c longjmpheap  -l data -f strncpy > /tmp/ripe_log 2>&1 		NOT POSSIBLE
sim-outorder -config sa1core.cfg simf -t direct -i createfile -c longjmpheap  -l data -f sprintf > /tmp/ripe_log 2>&1 		NOT POSSIBLE
sim-outorder -config sa1core.cfg simf -t direct -i createfile -c longjmpheap  -l data -f snprintf > /tmp/ripe_log 2>&1 		NOT POSSIBLE
sim-outorder -config sa1core.cfg simf -t direct -i createfile -c longjmpheap  -l data -f strcat > /tmp/ripe_log 2>&1 		NOT POSSIBLE
sim-outorder -config sa1core.cfg simf -t direct -i createfile -c longjmpheap  -l data -f strncat > /tmp/ripe_log 2>&1 		NOT POSSIBLE
sim-outorder -config sa1core.cfg simf -t direct -i createfile -c longjmpheap  -l data -f sscanf > /tmp/ripe_log 2>&1 		NOT POSSIBLE
sim-outorder -config sa1core.cfg simf -t direct -i createfile -c longjmpheap  -l data -f fscanf > /tmp/ripe_log 2>&1 		NOT POSSIBLE
sim-outorder -config sa1core.cfg simf -t direct -i createfile -c longjmpheap  -l data -f homebrew > /tmp/ripe_log 2>&1 		NOT POSSIBLE
sim-outorder -config sa1core.cfg simf -t direct -i createfile -c longjmpbss  -l data -f memcpy > /tmp/ripe_log 2>&1 		NOT POSSIBLE
sim-outorder -config sa1core.cfg simf -t direct -i createfile -c longjmpbss  -l data -f strcpy > /tmp/ripe_log 2>&1 		NOT POSSIBLE
sim-outorder -config sa1core.cfg simf -t direct -i createfile -c longjmpbss  -l data -f strncpy > /tmp/ripe_log 2>&1 		NOT POSSIBLE
sim-outorder -config sa1core.cfg simf -t direct -i createfile -c longjmpbss  -l data -f sprintf > /tmp/ripe_log 2>&1 		NOT POSSIBLE
sim-outorder -config sa1core.cfg simf -t direct -i createfile -c longjmpbss  -l data -f snprintf > /tmp/ripe_log 2>&1 		NOT POSSIBLE
sim-outorder -config sa1core.cfg simf -t direct -i createfile -c longjmpbss  -l data -f strcat > /tmp/ripe_log 2>&1 		NOT POSSIBLE
sim-outorder -config sa1core.cfg simf -t direct -i createfile -c longjmpbss  -l data -f strncat > /tmp/ripe_log 2>&1 		NOT POSSIBLE
sim-outorder -config sa1core.cfg simf -t direct -i createfile -c longjmpbss  -l data -f sscanf > /tmp/ripe_log 2>&1 		NOT POSSIBLE
sim-outorder -config sa1core.cfg simf -t direct -i createfile -c longjmpbss  -l data -f fscanf > /tmp/ripe_log 2>&1 		NOT POSSIBLE
sim-outorder -config sa1core.cfg simf -t direct -i createfile -c longjmpbss  -l data -f homebrew > /tmp/ripe_log 2>&1 		NOT POSSIBLE
sim-outorder -config sa1core.cfg simf -t direct -i createfile -c longjmpdata  -l data -f memcpy > /tmp/ripe_log 2>&1 		FAIL	10 / 10
sim-outorder -config sa1core.cfg simf -t direct -i createfile -c longjmpdata  -l data -f strcpy > /tmp/ripe_log 2>&1 		FAIL	10 / 10
sim-outorder -config sa1core.cfg simf -t direct -i createfile -c longjmpdata  -l data -f strncpy > /tmp/ripe_log 2>&1 		FAIL	10 / 10
sim-outorder -config sa1core.cfg simf -t direct -i createfile -c longjmpdata  -l data -f sprintf > /tmp/ripe_log 2>&1 		FAIL	10 / 10
sim-outorder -config sa1core.cfg simf -t direct -i createfile -c longjmpdata  -l data -f snprintf > /tmp/ripe_log 2>&1 		FAIL	10 / 10
[...]
sim-outorder -config sa1core.cfg simf -t indirect -i rop -c ret  -l data -f sscanf > /tmp/ripe_log 2>&1 		NOT POSSIBLE
sim-outorder -config sa1core.cfg simf -t indirect -i rop -c ret  -l data -f fscanf > /tmp/ripe_log 2>&1 		NOT POSSIBLE
sim-outorder -config sa1core.cfg simf -t indirect -i rop -c ret  -l data -f homebrew > /tmp/ripe_log 2>&1 		NOT POSSIBLE
sim-outorder -config sa1core.cfg simf -t indirect -i rop -c baseptr  -l data -f memcpy > /tmp/ripe_log 2>&1 		NOT POSSIBLE
sim-outorder -config sa1core.cfg simf -t indirect -i rop -c baseptr  -l data -f strcpy > /tmp/ripe_log 2>&1 		NOT POSSIBLE
sim-outorder -config sa1core.cfg simf -t indirect -i rop -c baseptr  -l data -f strncpy > /tmp/ripe_log 2>&1 		NOT POSSIBLE
sim-outorder -config sa1core.cfg simf -t indirect -i rop -c baseptr  -l data -f sprintf > /tmp/ripe_log 2>&1 		NOT POSSIBLE
sim-outorder -config sa1core.cfg simf -t indirect -i rop -c baseptr  -l data -f snprintf > /tmp/ripe_log 2>&1 		NOT POSSIBLE
sim-outorder -config sa1core.cfg simf -t indirect -i rop -c baseptr  -l data -f strcat > /tmp/ripe_log 2>&1 		NOT POSSIBLE
sim-outorder -config sa1core.cfg simf -t indirect -i rop -c baseptr  -l data -f strncat > /tmp/ripe_log 2>&1 		NOT POSSIBLE
sim-outorder -config sa1core.cfg simf -t indirect -i rop -c baseptr  -l data -f sscanf > /tmp/ripe_log 2>&1 		NOT POSSIBLE
sim-outorder -config sa1core.cfg simf -t indirect -i rop -c baseptr  -l data -f fscanf > /tmp/ripe_log 2>&1 		NOT POSSIBLE
sim-outorder -config sa1core.cfg simf -t indirect -i rop -c baseptr  -l data -f homebrew > /tmp/ripe_log 2>&1 		NOT POSSIBLE
sim-outorder -config sa1core.cfg simf -t indirect -i rop -c funcptrstackvar  -l data -f memcpy > /tmp/ripe_log 2>&1 		NOT POSSIBLE
sim-outorder -config sa1core.cfg simf -t indirect -i rop -c funcptrstackvar  -l data -f strcpy > /tmp/ripe_log 2>&1 		NOT POSSIBLE
sim-outorder -config sa1core.cfg simf -t indirect -i rop -c funcptrstackvar  -l data -f strncpy > /tmp/ripe_log 2>&1 		NOT POSSIBLE
sim-outorder -config sa1core.cfg simf -t indirect -i rop -c funcptrstackvar  -l data -f sprintf > /tmp/ripe_log 2>&1 		NOT POSSIBLE
sim-outorder -config sa1core.cfg simf -t indirect -i rop -c funcptrstackvar  -l data -f snprintf > /tmp/ripe_log 2>&1 		NOT POSSIBLE
sim-outorder -config sa1core.cfg simf -t indirect -i rop -c funcptrstackvar  -l data -f strcat > /tmp/ripe_log 2>&1 		NOT POSSIBLE
sim-outorder -config sa1core.cfg simf -t indirect -i rop -c funcptrstackvar  -l data -f strncat > /tmp/ripe_log 2>&1 		NOT POSSIBLE
sim-outorder -config sa1core.cfg simf -t indirect -i rop -c funcptrstackvar  -l data -f sscanf > /tmp/ripe_log 2>&1 		NOT POSSIBLE
sim-outorder -config sa1core.cfg simf -t indirect -i rop -c funcptrstackvar  -l data -f fscanf > /tmp/ripe_log 2>&1 		NOT POSSIBLE
sim-outorder -config sa1core.cfg simf -t indirect -i rop -c funcptrstackvar  -l data -f homebrew > /tmp/ripe_log 2>&1 		NOT POSSIBLE
sim-outorder -config sa1core.cfg simf -t indirect -i rop -c funcptrstackparam  -l data -f memcpy > /tmp/ripe_log 2>&1 		NOT POSSIBLE
sim-outorder -config sa1core.cfg simf -t indirect -i rop -c funcptrstackparam  -l data -f strcpy > /tmp/ripe_log 2>&1 		NOT POSSIBLE
sim-outorder -config sa1core.cfg simf -t indirect -i rop -c funcptrstackparam  -l data -f strncpy > /tmp/ripe_log 2>&1 		NOT POSSIBLE
sim-outorder -config sa1core.cfg simf -t indirect -i rop -c funcptrstackparam  -l data -f sprintf > /tmp/ripe_log 2>&1 		NOT POSSIBLE
sim-outorder -config sa1core.cfg simf -t indirect -i rop -c funcptrstackparam  -l data -f snprintf > /tmp/ripe_log 2>&1 		NOT POSSIBLE
sim-outorder -config sa1core.cfg simf -t indirect -i rop -c funcptrstackparam  -l data -f strcat > /tmp/ripe_log 2>&1 		NOT POSSIBLE
sim-outorder -config sa1core.cfg simf -t indirect -i rop -c funcptrstackparam  -l data -f strncat > /tmp/ripe_log 2>&1 		NOT POSSIBLE
sim-outorder -config sa1core.cfg simf -t indirect -i rop -c funcptrstackparam  -l data -f sscanf > /tmp/ripe_log 2>&1 		NOT POSSIBLE
sim-outorder -config sa1core.cfg simf -t indirect -i rop -c funcptrstackparam  -l data -f fscanf > /tmp/ripe_log 2>&1 		NOT POSSIBLE
sim-outorder -config sa1core.cfg simf -t indirect -i rop -c funcptrstackparam  -l data -f homebrew > /tmp/ripe_log 2>&1 		NOT POSSIBLE
sim-outorder -config sa1core.cfg simf -t indirect -i rop -c funcptrheap  -l data -f memcpy > /tmp/ripe_log 2>&1 		NOT POSSIBLE
sim-outorder -config sa1core.cfg simf -t indirect -i rop -c funcptrheap  -l data -f strcpy > /tmp/ripe_log 2>&1 		NOT POSSIBLE
sim-outorder -config sa1core.cfg simf -t indirect -i rop -c funcptrheap  -l data -f strncpy > /tmp/ripe_log 2>&1 		NOT POSSIBLE
sim-outorder -config sa1core.cfg simf -t indirect -i rop -c funcptrheap  -l data -f sprintf > /tmp/ripe_log 2>&1 		NOT POSSIBLE
sim-outorder -config sa1core.cfg simf -t indirect -i rop -c funcptrheap  -l data -f snprintf > /tmp/ripe_log 2>&1 		NOT POSSIBLE
sim-outorder -config sa1core.cfg simf -t indirect -i rop -c funcptrheap  -l data -f strcat > /tmp/ripe_log 2>&1 		NOT POSSIBLE
sim-outorder -config sa1core.cfg simf -t indirect -i rop -c funcptrheap  -l data -f strncat > /tmp/ripe_log 2>&1 		NOT POSSIBLE
sim-outorder -config sa1core.cfg simf -t indirect -i rop -c funcptrheap  -l data -f sscanf > /tmp/ripe_log 2>&1 		NOT POSSIBLE
sim-outorder -config sa1core.cfg simf -t indirect -i rop -c funcptrheap  -l data -f fscanf > /tmp/ripe_log 2>&1 		NOT POSSIBLE
sim-outorder -config sa1core.cfg simf -t indirect -i rop -c funcptrheap  -l data -f homebrew > /tmp/ripe_log 2>&1 		NOT POSSIBLE
sim-outorder -config sa1core.cfg simf -t indirect -i rop -c funcptrbss  -l data -f memcpy > /tmp/ripe_log 2>&1 		NOT POSSIBLE
sim-outorder -config sa1core.cfg simf -t indirect -i rop -c funcptrbss  -l data -f strcpy > /tmp/ripe_log 2>&1 		NOT POSSIBLE
sim-outorder -config sa1core.cfg simf -t indirect -i rop -c funcptrbss  -l data -f strncpy > /tmp/ripe_log 2>&1 		NOT POSSIBLE
sim-outorder -config sa1core.cfg simf -t indirect -i rop -c funcptrbss  -l data -f sprintf > /tmp/ripe_log 2>&1 		NOT POSSIBLE
sim-outorder -config sa1core.cfg simf -t indirect -i rop -c funcptrbss  -l data -f snprintf > /tmp/ripe_log 2>&1 		NOT POSSIBLE
sim-outorder -config sa1core.cfg simf -t indirect -i rop -c funcptrbss  -l data -f strcat > /tmp/ripe_log 2>&1 		NOT POSSIBLE
sim-outorder -config sa1core.cfg simf -t indirect -i rop -c funcptrbss  -l data -f strncat > /tmp/ripe_log 2>&1 		NOT POSSIBLE
sim-outorder -config sa1core.cfg simf -t indirect -i rop -c funcptrbss  -l data -f sscanf > /tmp/ripe_log 2>&1 		NOT POSSIBLE
sim-outorder -config sa1core.cfg simf -t indirect -i rop -c funcptrbss  -l data -f fscanf > /tmp/ripe_log 2>&1 		NOT POSSIBLE
sim-outorder -config sa1core.cfg simf -t indirect -i rop -c funcptrbss  -l data -f homebrew > /tmp/ripe_log 2>&1 		NOT POSSIBLE
sim-outorder -config sa1core.cfg simf -t indirect -i rop -c funcptrdata  -l data -f memcpy > /tmp/ripe_log 2>&1 		NOT POSSIBLE
sim-outorder -config sa1core.cfg simf -t indirect -i rop -c funcptrdata  -l data -f strcpy > /tmp/ripe_log 2>&1 		NOT POSSIBLE
sim-outorder -config sa1core.cfg simf -t indirect -i rop -c funcptrdata  -l data -f strncpy > /tmp/ripe_log 2>&1 		NOT POSSIBLE
sim-outorder -config sa1core.cfg simf -t indirect -i rop -c funcptrdata  -l data -f sprintf > /tmp/ripe_log 2>&1 		NOT POSSIBLE
sim-outorder -config sa1core.cfg simf -t indirect -i rop -c funcptrdata  -l data -f snprintf > /tmp/ripe_log 2>&1 		NOT POSSIBLE
sim-outorder -config sa1core.cfg simf -t indirect -i rop -c funcptrdata  -l data -f strcat > /tmp/ripe_log 2>&1 		NOT POSSIBLE
sim-outorder -config sa1core.cfg simf -t indirect -i rop -c funcptrdata  -l data -f strncat > /tmp/ripe_log 2>&1 		NOT POSSIBLE
sim-outorder -config sa1core.cfg simf -t indirect -i rop -c funcptrdata  -l data -f sscanf > /tmp/ripe_log 2>&1 		NOT POSSIBLE
sim-outorder -config sa1core.cfg simf -t indirect -i rop -c funcptrdata  -l data -f fscanf > /tmp/ripe_log 2>&1 		NOT POSSIBLE
sim-outorder -config sa1core.cfg simf -t indirect -i rop -c funcptrdata  -l data -f homebrew > /tmp/ripe_log 2>&1 		NOT POSSIBLE
sim-outorder -config sa1core.cfg simf -t indirect -i rop -c longjmpstackvar  -l data -f memcpy > /tmp/ripe_log 2>&1 		NOT POSSIBLE
sim-outorder -config sa1core.cfg simf -t indirect -i rop -c longjmpstackvar  -l data -f strcpy > /tmp/ripe_log 2>&1 		NOT POSSIBLE
sim-outorder -config sa1core.cfg simf -t indirect -i rop -c longjmpstackvar  -l data -f strncpy > /tmp/ripe_log 2>&1 		NOT POSSIBLE
sim-outorder -config sa1core.cfg simf -t indirect -i rop -c longjmpstackvar  -l data -f sprintf > /tmp/ripe_log 2>&1 		NOT POSSIBLE
sim-outorder -config sa1core.cfg simf -t indirect -i rop -c longjmpstackvar  -l data -f snprintf > /tmp/ripe_log 2>&1 		NOT POSSIBLE
sim-outorder -config sa1core.cfg simf -t indirect -i rop -c longjmpstackvar  -l data -f strcat > /tmp/ripe_log 2>&1 		NOT POSSIBLE
sim-outorder -config sa1core.cfg simf -t indirect -i rop -c longjmpstackvar  -l data -f strncat > /tmp/ripe_log 2>&1 		NOT POSSIBLE
sim-outorder -config sa1core.cfg simf -t indirect -i rop -c longjmpstackvar  -l data -f sscanf > /tmp/ripe_log 2>&1 		NOT POSSIBLE
sim-outorder -config sa1core.cfg simf -t indirect -i rop -c longjmpstackvar  -l data -f fscanf > /tmp/ripe_log 2>&1 		NOT POSSIBLE
sim-outorder -config sa1core.cfg simf -t indirect -i rop -c longjmpstackvar  -l data -f homebrew > /tmp/ripe_log 2>&1 		NOT POSSIBLE
sim-outorder -config sa1core.cfg simf -t indirect -i rop -c longjmpstackparam  -l data -f memcpy > /tmp/ripe_log 2>&1 		NOT POSSIBLE
sim-outorder -config sa1core.cfg simf -t indirect -i rop -c longjmpstackparam  -l data -f strcpy > /tmp/ripe_log 2>&1 		NOT POSSIBLE
sim-outorder -config sa1core.cfg simf -t indirect -i rop -c longjmpstackparam  -l data -f strncpy > /tmp/ripe_log 2>&1 		NOT POSSIBLE
sim-outorder -config sa1core.cfg simf -t indirect -i rop -c longjmpstackparam  -l data -f sprintf > /tmp/ripe_log 2>&1 		NOT POSSIBLE
sim-outorder -config sa1core.cfg simf -t indirect -i rop -c longjmpstackparam  -l data -f snprintf > /tmp/ripe_log 2>&1 		NOT POSSIBLE
sim-outorder -config sa1core.cfg simf -t indirect -i rop -c longjmpstackparam  -l data -f strcat > /tmp/ripe_log 2>&1 		NOT POSSIBLE
sim-outorder -config sa1core.cfg simf -t indirect -i rop -c longjmpstackparam  -l data -f strncat > /tmp/ripe_log 2>&1 		NOT POSSIBLE
sim-outorder -config sa1core.cfg simf -t indirect -i rop -c longjmpstackparam  -l data -f sscanf > /tmp/ripe_log 2>&1 		NOT POSSIBLE
sim-outorder -config sa1core.cfg simf -t indirect -i rop -c longjmpstackparam  -l data -f fscanf > /tmp/ripe_log 2>&1 		NOT POSSIBLE
sim-outorder -config sa1core.cfg simf -t indirect -i rop -c longjmpstackparam  -l data -f homebrew > /tmp/ripe_log 2>&1 		NOT POSSIBLE
sim-outorder -config sa1core.cfg simf -t indirect -i rop -c longjmpheap  -l data -f memcpy > /tmp/ripe_log 2>&1 		NOT POSSIBLE
sim-outorder -config sa1core.cfg simf -t indirect -i rop -c longjmpheap  -l data -f strcpy > /tmp/ripe_log 2>&1 		NOT POSSIBLE
sim-outorder -config sa1core.cfg simf -t indirect -i rop -c longjmpheap  -l data -f strncpy > /tmp/ripe_log 2>&1 		NOT POSSIBLE
sim-outorder -config sa1core.cfg simf -t indirect -i rop -c longjmpheap  -l data -f sprintf > /tmp/ripe_log 2>&1 		NOT POSSIBLE
sim-outorder -config sa1core.cfg simf -t indirect -i rop -c longjmpheap  -l data -f snprintf > /tmp/ripe_log 2>&1 		NOT POSSIBLE
sim-outorder -config sa1core.cfg simf -t indirect -i rop -c longjmpheap  -l data -f strcat > /tmp/ripe_log 2>&1 		NOT POSSIBLE
sim-outorder -config sa1core.cfg simf -t indirect -i rop -c longjmpheap  -l data -f strncat > /tmp/ripe_log 2>&1 		NOT POSSIBLE
sim-outorder -config sa1core.cfg simf -t indirect -i rop -c longjmpheap  -l data -f sscanf > /tmp/ripe_log 2>&1 		NOT POSSIBLE
sim-outorder -config sa1core.cfg simf -t indirect -i rop -c longjmpheap  -l data -f fscanf > /tmp/ripe_log 2>&1 		NOT POSSIBLE
sim-outorder -config sa1core.cfg simf -t indirect -i rop -c longjmpheap  -l data -f homebrew > /tmp/ripe_log 2>&1 		NOT POSSIBLE
sim-outorder -config sa1core.cfg simf -t indirect -i rop -c longjmpbss  -l data -f memcpy > /tmp/ripe_log 2>&1 		NOT POSSIBLE
sim-outorder -config sa1core.cfg simf -t indirect -i rop -c longjmpbss  -l data -f strcpy > /tmp/ripe_log 2>&1 		NOT POSSIBLE
sim-outorder -config sa1core.cfg simf -t indirect -i rop -c longjmpbss  -l data -f strncpy > /tmp/ripe_log 2>&1 		NOT POSSIBLE
sim-outorder -config sa1core.cfg simf -t indirect -i rop -c longjmpbss  -l data -f sprintf > /tmp/ripe_log 2>&1 		NOT POSSIBLE
sim-outorder -config sa1core.cfg simf -t indirect -i rop -c longjmpbss  -l data -f snprintf > /tmp/ripe_log 2>&1 		NOT POSSIBLE
sim-outorder -config sa1core.cfg simf -t indirect -i rop -c longjmpbss  -l data -f strcat > /tmp/ripe_log 2>&1 		NOT POSSIBLE
sim-outorder -config sa1core.cfg simf -t indirect -i rop -c longjmpbss  -l data -f strncat > /tmp/ripe_log 2>&1 		NOT POSSIBLE
sim-outorder -config sa1core.cfg simf -t indirect -i rop -c longjmpbss  -l data -f sscanf > /tmp/ripe_log 2>&1 		NOT POSSIBLE
sim-outorder -config sa1core.cfg simf -t indirect -i rop -c longjmpbss  -l data -f fscanf > /tmp/ripe_log 2>&1 		NOT POSSIBLE
sim-outorder -config sa1core.cfg simf -t indirect -i rop -c longjmpbss  -l data -f homebrew > /tmp/ripe_log 2>&1 		NOT POSSIBLE
sim-outorder -config sa1core.cfg simf -t indirect -i rop -c longjmpdata  -l data -f memcpy > /tmp/ripe_log 2>&1 		NOT POSSIBLE
sim-outorder -config sa1core.cfg simf -t indirect -i rop -c longjmpdata  -l data -f strcpy > /tmp/ripe_log 2>&1 		NOT POSSIBLE
sim-outorder -config sa1core.cfg simf -t indirect -i rop -c longjmpdata  -l data -f strncpy > /tmp/ripe_log 2>&1 		NOT POSSIBLE
sim-outorder -config sa1core.cfg simf -t indirect -i rop -c longjmpdata  -l data -f sprintf > /tmp/ripe_log 2>&1 		NOT POSSIBLE
sim-outorder -config sa1core.cfg simf -t indirect -i rop -c longjmpdata  -l data -f snprintf > /tmp/ripe_log 2>&1 		NOT POSSIBLE
sim-outorder -config sa1core.cfg simf -t indirect -i rop -c longjmpdata  -l data -f strcat > /tmp/ripe_log 2>&1 		NOT POSSIBLE
sim-outorder -config sa1core.cfg simf -t indirect -i rop -c longjmpdata  -l data -f strncat > /tmp/ripe_log 2>&1 		NOT POSSIBLE
sim-outorder -config sa1core.cfg simf -t indirect -i rop -c longjmpdata  -l data -f sscanf > /tmp/ripe_log 2>&1 		NOT POSSIBLE
sim-outorder -config sa1core.cfg simf -t indirect -i rop -c longjmpdata  -l data -f fscanf > /tmp/ripe_log 2>&1 		NOT POSSIBLE
sim-outorder -config sa1core.cfg simf -t indirect -i rop -c longjmpdata  -l data -f homebrew > /tmp/ripe_log 2>&1 		NOT POSSIBLE
sim-outorder -config sa1core.cfg simf -t indirect -i rop -c structfuncptrstack  -l data -f memcpy > /tmp/ripe_log 2>&1 		NOT POSSIBLE
sim-outorder -config sa1core.cfg simf -t indirect -i rop -c structfuncptrstack  -l data -f strcpy > /tmp/ripe_log 2>&1 		NOT POSSIBLE
sim-outorder -config sa1core.cfg simf -t indirect -i rop -c structfuncptrstack  -l data -f strncpy > /tmp/ripe_log 2>&1 		NOT POSSIBLE
sim-outorder -config sa1core.cfg simf -t indirect -i rop -c structfuncptrstack  -l data -f sprintf > /tmp/ripe_log 2>&1 		NOT POSSIBLE
sim-outorder -config sa1core.cfg simf -t indirect -i rop -c structfuncptrstack  -l data -f snprintf > /tmp/ripe_log 2>&1 		NOT POSSIBLE
sim-outorder -config sa1core.cfg simf -t indirect -i rop -c structfuncptrstack  -l data -f strcat > /tmp/ripe_log 2>&1 		NOT POSSIBLE
sim-outorder -config sa1core.cfg simf -t indirect -i rop -c structfuncptrstack  -l data -f strncat > /tmp/ripe_log 2>&1 		NOT POSSIBLE
sim-outorder -config sa1core.cfg simf -t indirect -i rop -c structfuncptrstack  -l data -f sscanf > /tmp/ripe_log 2>&1 		NOT POSSIBLE
sim-outorder -config sa1core.cfg simf -t indirect -i rop -c structfuncptrstack  -l data -f fscanf > /tmp/ripe_log 2>&1 		NOT POSSIBLE
sim-outorder -config sa1core.cfg simf -t indirect -i rop -c structfuncptrstack  -l data -f homebrew > /tmp/ripe_log 2>&1 		NOT POSSIBLE
sim-outorder -config sa1core.cfg simf -t indirect -i rop -c structfuncptrheap  -l data -f memcpy > /tmp/ripe_log 2>&1 		NOT POSSIBLE
sim-outorder -config sa1core.cfg simf -t indirect -i rop -c structfuncptrheap  -l data -f strcpy > /tmp/ripe_log 2>&1 		NOT POSSIBLE
sim-outorder -config sa1core.cfg simf -t indirect -i rop -c structfuncptrheap  -l data -f strncpy > /tmp/ripe_log 2>&1 		NOT POSSIBLE
sim-outorder -config sa1core.cfg simf -t indirect -i rop -c structfuncptrheap  -l data -f sprintf > /tmp/ripe_log 2>&1 		NOT POSSIBLE
sim-outorder -config sa1core.cfg simf -t indirect -i rop -c structfuncptrheap  -l data -f snprintf > /tmp/ripe_log 2>&1 		NOT POSSIBLE
sim-outorder -config sa1core.cfg simf -t indirect -i rop -c structfuncptrheap  -l data -f strcat > /tmp/ripe_log 2>&1 		NOT POSSIBLE
sim-outorder -config sa1core.cfg simf -t indirect -i rop -c structfuncptrheap  -l data -f strncat > /tmp/ripe_log 2>&1 		NOT POSSIBLE
sim-outorder -config sa1core.cfg simf -t indirect -i rop -c structfuncptrheap  -l data -f sscanf > /tmp/ripe_log 2>&1 		NOT POSSIBLE
sim-outorder -config sa1core.cfg simf -t indirect -i rop -c structfuncptrheap  -l data -f fscanf > /tmp/ripe_log 2>&1 		NOT POSSIBLE
sim-outorder -config sa1core.cfg simf -t indirect -i rop -c structfuncptrheap  -l data -f homebrew > /tmp/ripe_log 2>&1 		NOT POSSIBLE
sim-outorder -config sa1core.cfg simf -t indirect -i rop -c structfuncptrdata  -l data -f memcpy > /tmp/ripe_log 2>&1 		NOT POSSIBLE
sim-outorder -config sa1core.cfg simf -t indirect -i rop -c structfuncptrdata  -l data -f strcpy > /tmp/ripe_log 2>&1 		NOT POSSIBLE
sim-outorder -config sa1core.cfg simf -t indirect -i rop -c structfuncptrdata  -l data -f strncpy > /tmp/ripe_log 2>&1 		NOT POSSIBLE
sim-outorder -config sa1core.cfg simf -t indirect -i rop -c structfuncptrdata  -l data -f sprintf > /tmp/ripe_log 2>&1 		NOT POSSIBLE
sim-outorder -config sa1core.cfg simf -t indirect -i rop -c structfuncptrdata  -l data -f snprintf > /tmp/ripe_log 2>&1 		NOT POSSIBLE
sim-outorder -config sa1core.cfg simf -t indirect -i rop -c structfuncptrdata  -l data -f strcat > /tmp/ripe_log 2>&1 		NOT POSSIBLE
sim-outorder -config sa1core.cfg simf -t indirect -i rop -c structfuncptrdata  -l data -f strncat > /tmp/ripe_log 2>&1 		NOT POSSIBLE
sim-outorder -config sa1core.cfg simf -t indirect -i rop -c structfuncptrdata  -l data -f sscanf > /tmp/ripe_log 2>&1 		NOT POSSIBLE
sim-outorder -config sa1core.cfg simf -t indirect -i rop -c structfuncptrdata  -l data -f fscanf > /tmp/ripe_log 2>&1 		NOT POSSIBLE
sim-outorder -config sa1core.cfg simf -t indirect -i rop -c structfuncptrdata  -l data -f homebrew > /tmp/ripe_log 2>&1 		NOT POSSIBLE
sim-outorder -config sa1core.cfg simf -t indirect -i rop -c structfuncptrbss  -l data -f memcpy > /tmp/ripe_log 2>&1 		NOT POSSIBLE
sim-outorder -config sa1core.cfg simf -t indirect -i rop -c structfuncptrbss  -l data -f strcpy > /tmp/ripe_log 2>&1 		NOT POSSIBLE
sim-outorder -config sa1core.cfg simf -t indirect -i rop -c structfuncptrbss  -l data -f strncpy > /tmp/ripe_log 2>&1 		NOT POSSIBLE
sim-outorder -config sa1core.cfg simf -t indirect -i rop -c structfuncptrbss  -l data -f sprintf > /tmp/ripe_log 2>&1 		NOT POSSIBLE
sim-outorder -config sa1core.cfg simf -t indirect -i rop -c structfuncptrbss  -l data -f snprintf > /tmp/ripe_log 2>&1 		NOT POSSIBLE
sim-outorder -config sa1core.cfg simf -t indirect -i rop -c structfuncptrbss  -l data -f strcat > /tmp/ripe_log 2>&1 		NOT POSSIBLE
sim-outorder -config sa1core.cfg simf -t indirect -i rop -c structfuncptrbss  -l data -f strncat > /tmp/ripe_log 2>&1 		NOT POSSIBLE
sim-outorder -config sa1core.cfg simf -t indirect -i rop -c structfuncptrbss  -l data -f sscanf > /tmp/ripe_log 2>&1 		NOT POSSIBLE
sim-outorder -config sa1core.cfg simf -t indirect -i rop -c structfuncptrbss  -l data -f fscanf > /tmp/ripe_log 2>&1 		NOT POSSIBLE
sim-outorder -config sa1core.cfg simf -t indirect -i rop -c structfuncptrbss  -l data -f homebrew > /tmp/ripe_log 2>&1 		NOT POSSIBLE

||Summary|| OK:  0 , SOME:  0 , FAIL:  850 , NP:  2990 , Total Attacks:  3840
